 xtb: 6.7.1 (edcfbbe)
          08092621573D

 50 55  0     0  0            999 V2000
   -0.4281    0.1169   -2.5362 c   0  0  0  0  0  0  0  0  0  0  0  0
    1.0941    0.1041   -2.6317 c   0  0  0  0  0  0  0  0  0  0  0  0
   -2.5944    3.1622    0.6749 c   0  0  0  0  0  0  0  0  0  0  0  0
   -3.7420    2.5797    0.1619 c   0  0  0  0  0  0  0  0  0  0  0  0
   -3.6661    1.3378   -0.4289 c   0  0  0  0  0  0  0  0  0  0  0  0
   -2.4542    0.6496   -0.4924 c   0  0  0  0  0  0  0  0  0  0  0  0
   -1.3137    1.1764    0.1321 c   0  0  0  0  0  0  0  0  0  0  0  0
   -1.4075    2.4539    0.6742 c   0  0  0  0  0  0  0  0  0  0  0  0
   -2.3716   -0.4860   -1.2811 n   0  0  0  0  0  0  0  0  0  0  0  0
   -1.0358   -0.9291   -1.5790 c   0  0  0  0  0  0  0  0  0  0  0  0
   -0.1809   -1.0788   -0.2929 c   0  0  0  0  0  0  0  0  0  0  0  0
   -0.0797    0.3216    0.3734 c   0  0  0  0  0  0  0  0  0  0  0  0
    1.2404   -1.4578   -0.7217 c   0  0  0  0  0  0  0  0  0  0  0  0
    1.7551   -0.1152   -1.2643 c   0  0  0  0  0  0  0  0  0  0  0  0
    1.2541    0.8397   -0.1892 c   0  0  0  0  0  0  0  0  0  0  0  0
    3.2395    0.0711   -1.4076 c   0  0  0  0  0  0  0  0  0  0  0  0
    3.9504    0.9044   -0.6610 c   0  0  0  0  0  0  0  0  0  0  0  0
    3.3919    1.5998    0.5528 c   0  0  0  0  0  0  0  0  0  0  0  0
    2.2355    0.7827    0.9757 n   0  0  0  0  0  0  0  0  0  0  0  0
    1.3850    1.2489    2.0901 c   0  0  0  0  0  0  0  0  0  0  0  0
    0.1860    0.3151    1.9064 c   0  0  0  0  0  0  0  0  0  0  0  0
    2.6969   -0.4165    1.3147 o   0  0  0  0  0  0  0  0  0  0  0  0
    1.2006    1.8777   -0.5238 h   0  0  0  0  0  0  0  0  0  0  0  0
   -0.8638   -2.0936    0.5941 c   0  0  0  0  0  0  0  0  0  0  0  0
   -1.9101   -1.9080    1.1667 o   0  0  0  0  0  0  0  0  0  0  0  0
   -0.2039   -3.2522    0.6341 o   0  0  0  0  0  0  0  0  0  0  0  0
   -0.7731   -4.2723    1.4411 c   0  0  0  0  0  0  0  0  0  0  0  0
   -0.8614   -0.0367   -3.5261 h   0  0  0  0  0  0  0  0  0  0  0  0
   -0.7511    1.1011   -2.1961 h   0  0  0  0  0  0  0  0  0  0  0  0
    1.4247   -0.7025   -3.2896 h   0  0  0  0  0  0  0  0  0  0  0  0
    1.4309    1.0470   -3.0701 h   0  0  0  0  0  0  0  0  0  0  0  0
   -2.6276    4.1547    1.0984 h   0  0  0  0  0  0  0  0  0  0  0  0
   -4.6847    3.1046    0.2027 h   0  0  0  0  0  0  0  0  0  0  0  0
   -4.5404    0.8819   -0.8691 h   0  0  0  0  0  0  0  0  0  0  0  0
   -0.5398    2.9152    1.1199 h   0  0  0  0  0  0  0  0  0  0  0  0
   -3.0684   -1.1931   -1.1072 h   0  0  0  0  0  0  0  0  0  0  0  0
   -1.0892   -1.9025   -2.0775 h   0  0  0  0  0  0  0  0  0  0  0  0
    1.8439   -1.7451    0.1401 h   0  0  0  0  0  0  0  0  0  0  0  0
    1.2465   -2.2497   -1.4680 h   0  0  0  0  0  0  0  0  0  0  0  0
    3.7086   -0.4699   -2.2162 h   0  0  0  0  0  0  0  0  0  0  0  0
    5.0057    1.0457   -0.8384 h   0  0  0  0  0  0  0  0  0  0  0  0
    3.1067    2.6391    0.3546 h   0  0  0  0  0  0  0  0  0  0  0  0
    4.1272    1.5696    1.3597 h   0  0  0  0  0  0  0  0  0  0  0  0
    1.9119    1.0703    3.0263 h   0  0  0  0  0  0  0  0  0  0  0  0
    1.1377    2.3063    1.9882 h   0  0  0  0  0  0  0  0  0  0  0  0
   -0.6872    0.6233    2.4764 h   0  0  0  0  0  0  0  0  0  0  0  0
    0.4991   -0.6780    2.2280 h   0  0  0  0  0  0  0  0  0  0  0  0
   -1.7149   -4.6181    1.0087 h   0  0  0  0  0  0  0  0  0  0  0  0
   -0.0462   -5.0796    1.4674 h   0  0  0  0  0  0  0  0  0  0  0  0
   -0.9676   -3.8954    2.4471 h   0  0  0  0  0  0  0  0  0  0  0  0
  1  2  1  0  0  0  0
  3  4  4  0  0  0  0
  4  5  4  0  0  0  0
  5  6  4  0  0  0  0
  6  7  4  0  0  0  0
  3  8  4  0  0  0  0
  7  8  4  0  0  0  0
  6  9  1  0  0  0  0
  1 10  1  0  0  0  0
  9 10  1  0  0  0  0
 10 11  1  0  0  0  0
  7 12  1  0  0  0  0
 11 12  1  0  0  0  0
 11 13  1  0  0  0  0
  2 14  1  0  0  0  0
 13 14  1  0  0  0  0
 12 15  1  0  0  0  0
 14 15  1  0  0  0  0
 14 16  1  0  0  0  0
 16 17  2  0  0  0  0
 17 18  1  0  0  0  0
 15 19  1  0  0  0  0
 18 19  1  0  0  0  0
 19 20  1  0  0  0  0
 12 21  1  0  0  0  0
 20 21  1  0  0  0  0
 19 22  1  0  0  0  0
 15 23  1  0  0  0  0
 11 24  1  0  0  0  0
 24 25  2  0  0  0  0
 24 26  1  0  0  0  0
 26 27  1  0  0  0  0
  1 28  1  0  0  0  0
  1 29  1  0  0  0  0
  2 30  1  0  0  0  0
  2 31  1  0  0  0  0
  3 32  1  0  0  0  0
  4 33  1  0  0  0  0
  5 34  1  0  0  0  0
  8 35  1  0  0  0  0
  9 36  1  0  0  0  0
 10 37  1  0  0  0  0
 13 38  1  0  0  0  0
 13 39  1  0  0  0  0
 16 40  1  0  0  0  0
 17 41  1  0  0  0  0
 18 42  1  0  0  0  0
 18 43  1  0  0  0  0
 20 44  1  0  0  0  0
 20 45  1  0  0  0  0
 21 46  1  0  0  0  0
 21 47  1  0  0  0  0
 27 48  1  0  0  0  0
 27 49  1  0  0  0  0
 27 50  1  0  0  0  0
M  END
