 xtb: 6.7.1 (edcfbbe)
          08092615283D

 35 36  0     0  0            999 V2000
   -0.0429   -0.5563    0.2928 c   0  0  0  0  0  0  0  0  0  0  0  0
   -1.0242    0.5740    0.6988 c   0  0  0  0  0  0  0  0  0  0  0  0
   -0.3340    1.9529    0.6316 c   0  0  0  0  0  0  0  0  0  0  0  0
    0.5935    2.1614   -0.5659 c   0  0  0  0  0  0  0  0  0  0  0  0
    1.4506    0.9162   -0.8073 c   0  0  0  0  0  0  0  0  0  0  0  0
    0.5217   -0.2630   -1.1084 c   0  0  0  0  0  0  0  0  0  0  0  0
    1.2201   -0.4866    1.1700 c   0  0  0  0  0  0  0  0  0  0  0  0
    2.1190    0.4990    0.4786 c   0  0  0  0  0  0  0  0  0  0  0  0
    1.2261   -1.3883   -1.6087 o   0  0  0  0  0  0  0  0  0  0  0  0
   -0.7287   -1.9293    0.3933 c   0  0  0  0  0  0  0  0  0  0  0  0
    3.2892    0.9318    0.9098 c   0  0  0  0  0  0  0  0  0  0  0  0
   -2.3548    0.5390   -0.0268 c   0  0  0  0  0  0  0  0  0  0  0  0
   -2.5813    1.0372   -1.2329 c   0  0  0  0  0  0  0  0  0  0  0  0
   -1.2577    0.3964    1.7556 h   0  0  0  0  0  0  0  0  0  0  0  0
    0.1523   -3.0128    0.2901 o   0  0  0  0  0  0  0  0  0  0  0  0
   -3.4905   -0.0380    0.7700 c   0  0  0  0  0  0  0  0  0  0  0  0
   -1.1005    2.7302    0.6380 h   0  0  0  0  0  0  0  0  0  0  0  0
    0.2634    2.0752    1.5371 h   0  0  0  0  0  0  0  0  0  0  0  0
    0.0260    2.3872   -1.4697 h   0  0  0  0  0  0  0  0  0  0  0  0
    1.2428    3.0161   -0.3644 h   0  0  0  0  0  0  0  0  0  0  0  0
    2.1682    1.1027   -1.6125 h   0  0  0  0  0  0  0  0  0  0  0  0
   -0.2728   -0.0021   -1.8182 h   0  0  0  0  0  0  0  0  0  0  0  0
    1.6913   -1.4723    1.1937 h   0  0  0  0  0  0  0  0  0  0  0  0
    0.9991   -0.2012    2.1987 h   0  0  0  0  0  0  0  0  0  0  0  0
    1.7651   -1.1050   -2.3541 h   0  0  0  0  0  0  0  0  0  0  0  0
   -1.5084   -1.9916   -0.3815 h   0  0  0  0  0  0  0  0  0  0  0  0
   -1.1995   -2.0292    1.3759 h   0  0  0  0  0  0  0  0  0  0  0  0
    3.7040    0.6029    1.8474 h   0  0  0  0  0  0  0  0  0  0  0  0
    3.8797    1.6324    0.3437 h   0  0  0  0  0  0  0  0  0  0  0  0
   -3.5641    0.9960   -1.6732 h   0  0  0  0  0  0  0  0  0  0  0  0
   -1.8294    1.5128   -1.8346 h   0  0  0  0  0  0  0  0  0  0  0  0
    0.6800   -2.8701   -0.5087 h   0  0  0  0  0  0  0  0  0  0  0  0
   -3.2585   -1.0411    1.1197 h   0  0  0  0  0  0  0  0  0  0  0  0
   -3.6751    0.5842    1.6463 h   0  0  0  0  0  0  0  0  0  0  0  0
   -4.4014   -0.0765    0.1785 h   0  0  0  0  0  0  0  0  0  0  0  0
  1  2  1  0  0  0  0
  2  3  1  0  0  0  0
  3  4  1  0  0  0  0
  4  5  1  0  0  0  0
  1  6  1  0  0  0  0
  5  6  1  0  0  0  0
  1  7  1  0  0  0  0
  5  8  1  0  0  0  0
  7  8  1  0  0  0  0
  6  9  1  0  0  0  0
  1 10  1  0  0  0  0
  8 11  2  0  0  0  0
  2 12  1  0  0  0  0
 12 13  2  0  0  0  0
  2 14  1  0  0  0  0
 10 15  1  0  0  0  0
 12 16  1  0  0  0  0
  3 17  1  0  0  0  0
  3 18  1  0  0  0  0
  4 19  1  0  0  0  0
  4 20  1  0  0  0  0
  5 21  1  0  0  0  0
  6 22  1  0  0  0  0
  7 23  1  0  0  0  0
  7 24  1  0  0  0  0
  9 25  1  0  0  0  0
 10 26  1  0  0  0  0
 10 27  1  0  0  0  0
 11 28  1  0  0  0  0
 11 29  1  0  0  0  0
 13 30  1  0  0  0  0
 13 31  1  0  0  0  0
 15 32  1  0  0  0  0
 16 33  1  0  0  0  0
 16 34  1  0  0  0  0
 16 35  1  0  0  0  0
M  END
