 xtb: 6.7.1 (edcfbbe)
          08092620033D

 50 55  0     0  0            999 V2000
    0.0408    0.5035    2.5822 c   0  0  0  0  0  0  0  0  0  0  0  0
    1.5397    0.7569    2.4213 c   0  0  0  0  0  0  0  0  0  0  0  0
   -2.2319   -3.2118   -0.2676 c   0  0  0  0  0  0  0  0  0  0  0  0
   -3.2843   -2.7646    0.5143 c   0  0  0  0  0  0  0  0  0  0  0  0
   -3.2333   -1.5049    1.0737 c   0  0  0  0  0  0  0  0  0  0  0  0
   -2.1498   -0.6576    0.8376 c   0  0  0  0  0  0  0  0  0  0  0  0
   -1.1156   -1.0812   -0.0112 c   0  0  0  0  0  0  0  0  0  0  0  0
   -1.1636   -2.3710   -0.5237 c   0  0  0  0  0  0  0  0  0  0  0  0
   -2.1316    0.5955    1.4235 n   0  0  0  0  0  0  0  0  0  0  0  0
   -0.8483    1.2390    1.5562 c   0  0  0  0  0  0  0  0  0  0  0  0
   -0.2081    1.2719    0.1514 c   0  0  0  0  0  0  0  0  0  0  0  0
    0.0415   -0.1647   -0.3545 c   0  0  0  0  0  0  0  0  0  0  0  0
    1.1850    1.8720    0.2605 c   0  0  0  0  0  0  0  0  0  0  0  0
    1.9502    0.7261    0.9386 c   0  0  0  0  0  0  0  0  0  0  0  0
    1.3923   -0.5697    0.3051 c   0  0  0  0  0  0  0  0  0  0  0  0
    3.4253    0.9080    0.7896 c   0  0  0  0  0  0  0  0  0  0  0  0
    4.1894    0.0605    0.1250 c   0  0  0  0  0  0  0  0  0  0  0  0
    3.6604   -1.1921   -0.4834 c   0  0  0  0  0  0  0  0  0  0  0  0
    2.2092   -1.1815   -0.7860 n   0  0  0  0  0  0  0  0  0  0  0  0
    1.8837   -0.3632   -1.9737 c   0  0  0  0  0  0  0  0  0  0  0  0
    0.3761   -0.1550   -1.8697 c   0  0  0  0  0  0  0  0  0  0  0  0
    1.8300   -2.4619   -0.9919 o   0  0  0  0  0  0  0  0  0  0  0  0
    1.2816   -1.3676    1.0404 h   0  0  0  0  0  0  0  0  0  0  0  0
   -1.1186    2.0985   -0.7367 c   0  0  0  0  0  0  0  0  0  0  0  0
   -0.9218    3.2700   -0.9838 o   0  0  0  0  0  0  0  0  0  0  0  0
   -2.1638    1.4229   -1.1857 o   0  0  0  0  0  0  0  0  0  0  0  0
   -3.1141    2.1345   -1.9765 c   0  0  0  0  0  0  0  0  0  0  0  0
   -0.2714    0.7963    3.5869 h   0  0  0  0  0  0  0  0  0  0  0  0
   -0.1603   -0.5648    2.4795 h   0  0  0  0  0  0  0  0  0  0  0  0
    1.8031    1.7324    2.8339 h   0  0  0  0  0  0  0  0  0  0  0  0
    2.0926   -0.0019    2.9791 h   0  0  0  0  0  0  0  0  0  0  0  0
   -2.2398   -4.2106   -0.6774 h   0  0  0  0  0  0  0  0  0  0  0  0
   -4.1321   -3.4056    0.7083 h   0  0  0  0  0  0  0  0  0  0  0  0
   -4.0343   -1.1590    1.7123 h   0  0  0  0  0  0  0  0  0  0  0  0
   -0.3202   -2.7357   -1.0929 h   0  0  0  0  0  0  0  0  0  0  0  0
   -2.7584    0.7010    2.2079 h   0  0  0  0  0  0  0  0  0  0  0  0
   -1.0145    2.2739    1.8787 h   0  0  0  0  0  0  0  0  0  0  0  0
    1.1926    2.7827    0.8569 h   0  0  0  0  0  0  0  0  0  0  0  0
    1.5791    2.1181   -0.7242 h   0  0  0  0  0  0  0  0  0  0  0  0
    3.8336    1.8028    1.2353 h   0  0  0  0  0  0  0  0  0  0  0  0
    5.2533    0.2145    0.0238 h   0  0  0  0  0  0  0  0  0  0  0  0
    4.1705   -1.4390   -1.4169 h   0  0  0  0  0  0  0  0  0  0  0  0
    3.8084   -2.0396    0.1956 h   0  0  0  0  0  0  0  0  0  0  0  0
    2.4439    0.5704   -1.9282 h   0  0  0  0  0  0  0  0  0  0  0  0
    2.1658   -0.9294   -2.8612 h   0  0  0  0  0  0  0  0  0  0  0  0
   -0.1473   -0.9693   -2.3668 h   0  0  0  0  0  0  0  0  0  0  0  0
    0.0831    0.7800   -2.3439 h   0  0  0  0  0  0  0  0  0  0  0  0
   -3.5078    2.9841   -1.4162 h   0  0  0  0  0  0  0  0  0  0  0  0
   -2.6455    2.5009   -2.8917 h   0  0  0  0  0  0  0  0  0  0  0  0
   -3.9004    1.4203   -2.2035 h   0  0  0  0  0  0  0  0  0  0  0  0
  1  2  1  0  0  0  0
  3  4  4  0  0  0  0
  4  5  4  0  0  0  0
  5  6  4  0  0  0  0
  6  7  4  0  0  0  0
  3  8  4  0  0  0  0
  7  8  4  0  0  0  0
  6  9  1  0  0  0  0
  1 10  1  0  0  0  0
  9 10  1  0  0  0  0
 10 11  1  0  0  0  0
  7 12  1  0  0  0  0
 11 12  1  0  0  0  0
 11 13  1  0  0  0  0
  2 14  1  0  0  0  0
 13 14  1  0  0  0  0
 12 15  1  0  0  0  0
 14 15  1  0  0  0  0
 14 16  1  0  0  0  0
 16 17  2  0  0  0  0
 17 18  1  0  0  0  0
 15 19  1  0  0  0  0
 18 19  1  0  0  0  0
 19 20  1  0  0  0  0
 12 21  1  0  0  0  0
 20 21  1  0  0  0  0
 19 22  1  0  0  0  0
 15 23  1  0  0  0  0
 11 24  1  0  0  0  0
 24 25  2  0  0  0  0
 24 26  1  0  0  0  0
 26 27  1  0  0  0  0
  1 28  1  0  0  0  0
  1 29  1  0  0  0  0
  2 30  1  0  0  0  0
  2 31  1  0  0  0  0
  3 32  1  0  0  0  0
  4 33  1  0  0  0  0
  5 34  1  0  0  0  0
  8 35  1  0  0  0  0
  9 36  1  0  0  0  0
 10 37  1  0  0  0  0
 13 38  1  0  0  0  0
 13 39  1  0  0  0  0
 16 40  1  0  0  0  0
 17 41  1  0  0  0  0
 18 42  1  0  0  0  0
 18 43  1  0  0  0  0
 20 44  1  0  0  0  0
 20 45  1  0  0  0  0
 21 46  1  0  0  0  0
 21 47  1  0  0  0  0
 27 48  1  0  0  0  0
 27 49  1  0  0  0  0
 27 50  1  0  0  0  0
M  END
