 xtb: 6.7.1 (edcfbbe)
          08092612213D

 54 57  0     0  0            999 V2000
   -1.2831   -1.5210    1.9381 c   0  0  0  0  0  0  0  0  0  0  0  0
   -2.6788   -1.3378    1.3579 c   0  0  0  0  0  0  0  0  0  0  0  0
   -2.7347   -0.6657   -0.0284 c   0  0  0  0  0  0  0  0  0  0  0  0
   -1.6884    0.5049   -0.1727 c   0  0  0  0  0  0  0  0  0  0  0  0
   -0.2886    0.3035    0.5303 c   0  0  0  0  0  0  0  0  0  0  0  0
   -0.5413   -0.1897    1.9683 c   0  0  0  0  0  0  0  0  0  0  0  0
   -1.3915    0.7882   -1.6512 c   0  0  0  0  0  0  0  0  0  0  0  0
   -0.6043    2.0846   -1.8055 c   0  0  0  0  0  0  0  0  0  0  0  0
    0.6966    2.0876   -0.9971 c   0  0  0  0  0  0  0  0  0  0  0  0
    0.5471    1.6566    0.4918 c   0  0  0  0  0  0  0  0  0  0  0  0
    0.8056   -0.6777   -0.0097 c   0  0  0  0  0  0  0  0  0  0  0  0
    1.9384    1.1948    0.9540 c   0  0  0  0  0  0  0  0  0  0  0  0
    2.0598   -0.1604    0.3511 c   0  0  0  0  0  0  0  0  0  0  0  0
    3.2692   -0.8032    0.1586 c   0  0  0  0  0  0  0  0  0  0  0  0
    3.2676   -2.0515   -0.4477 c   0  0  0  0  0  0  0  0  0  0  0  0
    2.0608   -2.5892   -0.8115 c   0  0  0  0  0  0  0  0  0  0  0  0
    0.8328   -1.9488   -0.5929 c   0  0  0  0  0  0  0  0  0  0  0  0
   -0.2133   -2.7106   -0.9815 o   0  0  0  0  0  0  0  0  0  0  0  0
    4.4653   -0.2588    0.5467 o   0  0  0  0  0  0  0  0  0  0  0  0
   -2.4994   -1.5979   -1.0806 o   0  0  0  0  0  0  0  0  0  0  0  0
   -4.2041   -0.2375   -0.2454 c   0  0  0  0  0  0  0  0  0  0  0  0
   -2.4207    1.7234    0.4188 c   0  0  0  0  0  0  0  0  0  0  0  0
    1.3738    3.4487   -1.1763 c   0  0  0  0  0  0  0  0  0  0  0  0
    0.1752    2.8236    1.4245 c   0  0  0  0  0  0  0  0  0  0  0  0
   -1.3764   -1.9114    2.9545 h   0  0  0  0  0  0  0  0  0  0  0  0
   -0.7180   -2.2513    1.3614 h   0  0  0  0  0  0  0  0  0  0  0  0
   -3.2586   -0.7243    2.0509 h   0  0  0  0  0  0  0  0  0  0  0  0
   -3.1797   -2.3088    1.2919 h   0  0  0  0  0  0  0  0  0  0  0  0
    0.4052   -0.3239    2.4913 h   0  0  0  0  0  0  0  0  0  0  0  0
   -1.1372    0.5311    2.5293 h   0  0  0  0  0  0  0  0  0  0  0  0
   -0.8124   -0.0353   -2.0700 h   0  0  0  0  0  0  0  0  0  0  0  0
   -2.3210    0.8589   -2.2185 h   0  0  0  0  0  0  0  0  0  0  0  0
   -0.3447    2.2113   -2.8596 h   0  0  0  0  0  0  0  0  0  0  0  0
   -1.2247    2.9387   -1.5317 h   0  0  0  0  0  0  0  0  0  0  0  0
    1.3462    1.3343   -1.4569 h   0  0  0  0  0  0  0  0  0  0  0  0
    1.9875    1.1513    2.0467 h   0  0  0  0  0  0  0  0  0  0  0  0
    2.7146    1.8833    0.6126 h   0  0  0  0  0  0  0  0  0  0  0  0
    4.1967   -2.5698   -0.6164 h   0  0  0  0  0  0  0  0  0  0  0  0
    2.0087   -3.5605   -1.2777 h   0  0  0  0  0  0  0  0  0  0  0  0
   -1.0450   -2.1918   -0.9931 h   0  0  0  0  0  0  0  0  0  0  0  0
    4.3062    0.5943    0.9651 h   0  0  0  0  0  0  0  0  0  0  0  0
   -3.1209   -2.3309   -0.9983 h   0  0  0  0  0  0  0  0  0  0  0  0
   -4.8151   -1.1416   -0.2508 h   0  0  0  0  0  0  0  0  0  0  0  0
   -4.5892    0.4070    0.5356 h   0  0  0  0  0  0  0  0  0  0  0  0
   -4.3236    0.2463   -1.2112 h   0  0  0  0  0  0  0  0  0  0  0  0
   -2.7756    1.5240    1.4255 h   0  0  0  0  0  0  0  0  0  0  0  0
   -1.7973    2.5946    0.4486 h   0  0  0  0  0  0  0  0  0  0  0  0
   -3.2711    1.9732   -0.2076 h   0  0  0  0  0  0  0  0  0  0  0  0
    2.2982    3.5248   -0.6105 h   0  0  0  0  0  0  0  0  0  0  0  0
    1.6150    3.5943   -2.2271 h   0  0  0  0  0  0  0  0  0  0  0  0
    0.7205    4.2626   -0.8709 h   0  0  0  0  0  0  0  0  0  0  0  0
    1.0928    3.2910    1.7799 h   0  0  0  0  0  0  0  0  0  0  0  0
   -0.3915    3.6130    0.9407 h   0  0  0  0  0  0  0  0  0  0  0  0
   -0.3722    2.4832    2.2975 h   0  0  0  0  0  0  0  0  0  0  0  0
  1  2  1  0  0  0  0
  2  3  1  0  0  0  0
  3  4  1  0  0  0  0
  4  5  1  0  0  0  0
  1  6  1  0  0  0  0
  5  6  1  0  0  0  0
  4  7  1  0  0  0  0
  7  8  1  0  0  0  0
  8  9  1  0  0  0  0
  5 10  1  0  0  0  0
  9 10  1  0  0  0  0
  5 11  1  0  0  0  0
 10 12  1  0  0  0  0
 11 13  4  0  0  0  0
 12 13  1  0  0  0  0
 13 14  4  0  0  0  0
 14 15  4  0  0  0  0
 15 16  4  0  0  0  0
 11 17  4  0  0  0  0
 16 17  4  0  0  0  0
 17 18  1  0  0  0  0
 14 19  1  0  0  0  0
  3 20  1  0  0  0  0
  3 21  1  0  0  0  0
  4 22  1  0  0  0  0
  9 23  1  0  0  0  0
 10 24  1  0  0  0  0
  1 25  1  0  0  0  0
  1 26  1  0  0  0  0
  2 27  1  0  0  0  0
  2 28  1  0  0  0  0
  6 29  1  0  0  0  0
  6 30  1  0  0  0  0
  7 31  1  0  0  0  0
  7 32  1  0  0  0  0
  8 33  1  0  0  0  0
  8 34  1  0  0  0  0
  9 35  1  0  0  0  0
 12 36  1  0  0  0  0
 12 37  1  0  0  0  0
 15 38  1  0  0  0  0
 16 39  1  0  0  0  0
 18 40  1  0  0  0  0
 19 41  1  0  0  0  0
 20 42  1  0  0  0  0
 21 43  1  0  0  0  0
 21 44  1  0  0  0  0
 21 45  1  0  0  0  0
 22 46  1  0  0  0  0
 22 47  1  0  0  0  0
 22 48  1  0  0  0  0
 23 49  1  0  0  0  0
 23 50  1  0  0  0  0
 23 51  1  0  0  0  0
 24 52  1  0  0  0  0
 24 53  1  0  0  0  0
 24 54  1  0  0  0  0
M  END
