 xtb: 6.7.1 (edcfbbe)
          08092617483D

 35 36  0     0  0            999 V2000
    0.0279   -0.7725   -0.0279 c   0  0  0  0  0  0  0  0  0  0  0  0
    0.6439    0.4216   -0.8118 c   0  0  0  0  0  0  0  0  0  0  0  0
   -0.4031    1.5362   -0.9871 c   0  0  0  0  0  0  0  0  0  0  0  0
   -1.2351    1.8074    0.2650 c   0  0  0  0  0  0  0  0  0  0  0  0
   -1.7841    0.4944    0.8364 c   0  0  0  0  0  0  0  0  0  0  0  0
   -0.6058   -0.3671    1.3148 c   0  0  0  0  0  0  0  0  0  0  0  0
   -1.2377   -1.2486   -0.7767 c   0  0  0  0  0  0  0  0  0  0  0  0
   -2.3475   -0.3633   -0.2648 c   0  0  0  0  0  0  0  0  0  0  0  0
    0.2830    0.2473    2.2149 o   0  0  0  0  0  0  0  0  0  0  0  0
    1.0368   -1.9115    0.1582 c   0  0  0  0  0  0  0  0  0  0  0  0
   -3.5932   -0.3479   -0.7028 c   0  0  0  0  0  0  0  0  0  0  0  0
    1.9934    0.9107   -0.3137 c   0  0  0  0  0  0  0  0  0  0  0  0
    3.0974    0.3263   -0.7606 c   0  0  0  0  0  0  0  0  0  0  0  0
    0.8516    0.0154   -1.8099 h   0  0  0  0  0  0  0  0  0  0  0  0
    1.4986   -2.4624   -1.0563 o   0  0  0  0  0  0  0  0  0  0  0  0
    2.0882    2.0778    0.6215 c   0  0  0  0  0  0  0  0  0  0  0  0
    0.0939    2.4513   -1.3114 h   0  0  0  0  0  0  0  0  0  0  0  0
   -1.0860    1.2467   -1.7887 h   0  0  0  0  0  0  0  0  0  0  0  0
   -0.6318    2.2947    1.0306 h   0  0  0  0  0  0  0  0  0  0  0  0
   -2.0642    2.4699    0.0081 h   0  0  0  0  0  0  0  0  0  0  0  0
   -2.5095    0.6989    1.6281 h   0  0  0  0  0  0  0  0  0  0  0  0
   -1.0031   -1.2839    1.7853 h   0  0  0  0  0  0  0  0  0  0  0  0
   -1.1366   -1.1855   -1.8603 h   0  0  0  0  0  0  0  0  0  0  0  0
   -1.4581   -2.2889   -0.5175 h   0  0  0  0  0  0  0  0  0  0  0  0
   -0.2090    0.4710    3.0150 h   0  0  0  0  0  0  0  0  0  0  0  0
    0.5785   -2.6993    0.7747 h   0  0  0  0  0  0  0  0  0  0  0  0
    1.9226   -1.5412    0.6770 h   0  0  0  0  0  0  0  0  0  0  0  0
   -3.9204   -0.9855   -1.5073 h   0  0  0  0  0  0  0  0  0  0  0  0
   -4.3356    0.3055   -0.2770 h   0  0  0  0  0  0  0  0  0  0  0  0
    4.0762    0.6467   -0.4423 h   0  0  0  0  0  0  0  0  0  0  0  0
    3.0731   -0.5101   -1.4390 h   0  0  0  0  0  0  0  0  0  0  0  0
    0.7321   -2.7777   -1.5529 h   0  0  0  0  0  0  0  0  0  0  0  0
    1.5999    2.9576    0.2074 h   0  0  0  0  0  0  0  0  0  0  0  0
    1.6181    1.8328    1.5694 h   0  0  0  0  0  0  0  0  0  0  0  0
    3.1320    2.3208    0.8055 h   0  0  0  0  0  0  0  0  0  0  0  0
  1  2  1  0  0  0  0
  2  3  1  0  0  0  0
  3  4  1  0  0  0  0
  4  5  1  0  0  0  0
  1  6  1  0  0  0  0
  5  6  1  0  0  0  0
  1  7  1  0  0  0  0
  5  8  1  0  0  0  0
  7  8  1  0  0  0  0
  6  9  1  0  0  0  0
  1 10  1  0  0  0  0
  8 11  2  0  0  0  0
  2 12  1  0  0  0  0
 12 13  2  0  0  0  0
  2 14  1  0  0  0  0
 10 15  1  0  0  0  0
 12 16  1  0  0  0  0
  3 17  1  0  0  0  0
  3 18  1  0  0  0  0
  4 19  1  0  0  0  0
  4 20  1  0  0  0  0
  5 21  1  0  0  0  0
  6 22  1  0  0  0  0
  7 23  1  0  0  0  0
  7 24  1  0  0  0  0
  9 25  1  0  0  0  0
 10 26  1  0  0  0  0
 10 27  1  0  0  0  0
 11 28  1  0  0  0  0
 11 29  1  0  0  0  0
 13 30  1  0  0  0  0
 13 31  1  0  0  0  0
 15 32  1  0  0  0  0
 16 33  1  0  0  0  0
 16 34  1  0  0  0  0
 16 35  1  0  0  0  0
M  END
