 xtb: 6.7.1 (edcfbbe)
          08092600333D

 42 44  0     0  0            999 V2000
    0.9844    1.5883   -0.1245 c   0  0  0  0  0  0  0  0  0  0  0  0
    2.3112    1.0765    0.4550 c   0  0  0  0  0  0  0  0  0  0  0  0
    2.9611   -0.0623   -0.3405 c   0  0  0  0  0  0  0  0  0  0  0  0
    2.5333   -1.4610    0.1053 c   0  0  0  0  0  0  0  0  0  0  0  0
    1.1015   -1.8635   -0.2566 c   0  0  0  0  0  0  0  0  0  0  0  0
    0.0959   -0.8446    0.2901 c   0  0  0  0  0  0  0  0  0  0  0  0
    0.0308    0.4542   -0.5248 c   0  0  0  0  0  0  0  0  0  0  0  0
    0.1840    2.4237    0.9092 c   0  0  0  0  0  0  0  0  0  0  0  0
   -1.1711    1.7305    1.0976 c   0  0  0  0  0  0  0  0  0  0  0  0
   -1.3830    0.9376   -0.1951 c   0  0  0  0  0  0  0  0  0  0  0  0
   -1.2237   -1.3743    0.2678 o   0  0  0  0  0  0  0  0  0  0  0  0
   -2.1799   -0.3739   -0.0944 c   0  0  0  0  0  0  0  0  0  0  0  0
    0.1370    0.2049   -1.5830 h   0  0  0  0  0  0  0  0  0  0  0  0
   -1.7973    1.5857   -0.9692 h   0  0  0  0  0  0  0  0  0  0  0  0
    0.3574   -0.6319    1.3375 h   0  0  0  0  0  0  0  0  0  0  0  0
    0.8038   -3.2557    0.2973 c   0  0  0  0  0  0  0  0  0  0  0  0
   -2.7731   -0.7386   -1.4633 c   0  0  0  0  0  0  0  0  0  0  0  0
   -3.3023   -0.3518    0.9449 c   0  0  0  0  0  0  0  0  0  0  0  0
    1.2726    2.4564   -1.3549 c   0  0  0  0  0  0  0  0  0  0  0  0
    3.0013    1.9232    0.4940 h   0  0  0  0  0  0  0  0  0  0  0  0
    2.1624    0.7400    1.4825 h   0  0  0  0  0  0  0  0  0  0  0  0
    2.7597    0.0563   -1.4055 h   0  0  0  0  0  0  0  0  0  0  0  0
    4.0441    0.0052   -0.2086 h   0  0  0  0  0  0  0  0  0  0  0  0
    2.6558   -1.5379    1.1889 h   0  0  0  0  0  0  0  0  0  0  0  0
    3.2100   -2.1891   -0.3494 h   0  0  0  0  0  0  0  0  0  0  0  0
    0.9991   -1.8978   -1.3471 h   0  0  0  0  0  0  0  0  0  0  0  0
    0.0354    3.4344    0.5283 h   0  0  0  0  0  0  0  0  0  0  0  0
    0.7181    2.5081    1.8554 h   0  0  0  0  0  0  0  0  0  0  0  0
   -1.1231    1.0504    1.9468 h   0  0  0  0  0  0  0  0  0  0  0  0
   -1.9737    2.4436    1.2810 h   0  0  0  0  0  0  0  0  0  0  0  0
    0.9114   -3.2618    1.3796 h   0  0  0  0  0  0  0  0  0  0  0  0
   -0.2156   -3.5392    0.0550 h   0  0  0  0  0  0  0  0  0  0  0  0
    1.4888   -3.9873   -0.1257 h   0  0  0  0  0  0  0  0  0  0  0  0
   -2.0054   -0.7084   -2.2323 h   0  0  0  0  0  0  0  0  0  0  0  0
   -3.5698   -0.0482   -1.7281 h   0  0  0  0  0  0  0  0  0  0  0  0
   -3.1763   -1.7470   -1.4228 h   0  0  0  0  0  0  0  0  0  0  0  0
   -2.8999   -0.2491    1.9480 h   0  0  0  0  0  0  0  0  0  0  0  0
   -3.9802    0.4738    0.7456 h   0  0  0  0  0  0  0  0  0  0  0  0
   -3.8551   -1.2863    0.8979 h   0  0  0  0  0  0  0  0  0  0  0  0
    1.8501    3.3341   -1.0712 h   0  0  0  0  0  0  0  0  0  0  0  0
    1.8405    1.9056   -2.1011 h   0  0  0  0  0  0  0  0  0  0  0  0
    0.3433    2.7885   -1.8122 h   0  0  0  0  0  0  0  0  0  0  0  0
  1  2  1  0  0  0  0
  2  3  1  0  0  0  0
  3  4  1  0  0  0  0
  4  5  1  0  0  0  0
  5  6  1  0  0  0  0
  1  7  1  0  0  0  0
  6  7  1  0  0  0  0
  1  8  1  0  0  0  0
  8  9  1  0  0  0  0
  7 10  1  0  0  0  0
  9 10  1  0  0  0  0
  6 11  1  0  0  0  0
 10 12  1  0  0  0  0
 11 12  1  0  0  0  0
  7 13  1  0  0  0  0
 10 14  1  0  0  0  0
  6 15  1  0  0  0  0
  5 16  1  0  0  0  0
 12 17  1  0  0  0  0
 12 18  1  0  0  0  0
  1 19  1  0  0  0  0
  2 20  1  0  0  0  0
  2 21  1  0  0  0  0
  3 22  1  0  0  0  0
  3 23  1  0  0  0  0
  4 24  1  0  0  0  0
  4 25  1  0  0  0  0
  5 26  1  0  0  0  0
  8 27  1  0  0  0  0
  8 28  1  0  0  0  0
  9 29  1  0  0  0  0
  9 30  1  0  0  0  0
 16 31  1  0  0  0  0
 16 32  1  0  0  0  0
 16 33  1  0  0  0  0
 17 34  1  0  0  0  0
 17 35  1  0  0  0  0
 17 36  1  0  0  0  0
 18 37  1  0  0  0  0
 18 38  1  0  0  0  0
 18 39  1  0  0  0  0
 19 40  1  0  0  0  0
 19 41  1  0  0  0  0
 19 42  1  0  0  0  0
M  END
