 xtb: 6.7.1 (edcfbbe)
          08092617053D

 35 36  0     0  0            999 V2000
   -0.0277   -0.5609    0.2811 c   0  0  0  0  0  0  0  0  0  0  0  0
   -1.0016    0.5650    0.7181 c   0  0  0  0  0  0  0  0  0  0  0  0
   -0.3410    1.9560    0.6035 c   0  0  0  0  0  0  0  0  0  0  0  0
    0.5834    2.1501   -0.5997 c   0  0  0  0  0  0  0  0  0  0  0  0
    1.4723    0.9190   -0.7971 c   0  0  0  0  0  0  0  0  0  0  0  0
    0.5581   -0.2720   -1.1114 c   0  0  0  0  0  0  0  0  0  0  0  0
    1.2310   -0.5002    1.1697 c   0  0  0  0  0  0  0  0  0  0  0  0
    2.1166    0.5188    0.5043 c   0  0  0  0  0  0  0  0  0  0  0  0
    1.2894   -1.3498   -1.6719 o   0  0  0  0  0  0  0  0  0  0  0  0
   -0.7443   -1.9136    0.3771 c   0  0  0  0  0  0  0  0  0  0  0  0
    3.2610    0.9802    0.9748 c   0  0  0  0  0  0  0  0  0  0  0  0
   -2.3829    0.5016    0.0965 c   0  0  0  0  0  0  0  0  0  0  0  0
   -3.4091    0.0931    0.8319 c   0  0  0  0  0  0  0  0  0  0  0  0
   -1.1714    0.3950    1.7884 h   0  0  0  0  0  0  0  0  0  0  0  0
    0.1895   -2.9803    0.2619 o   0  0  0  0  0  0  0  0  0  0  0  0
   -2.6097    0.9428   -1.3186 c   0  0  0  0  0  0  0  0  0  0  0  0
   -1.1224    2.7186    0.5991 h   0  0  0  0  0  0  0  0  0  0  0  0
    0.2562    2.1136    1.5034 h   0  0  0  0  0  0  0  0  0  0  0  0
    0.0171    2.3209   -1.5164 h   0  0  0  0  0  0  0  0  0  0  0  0
    1.2063    3.0295   -0.4253 h   0  0  0  0  0  0  0  0  0  0  0  0
    2.2010    1.0876   -1.5920 h   0  0  0  0  0  0  0  0  0  0  0  0
   -0.2064   -0.0009   -1.8453 h   0  0  0  0  0  0  0  0  0  0  0  0
    1.7268   -1.4737    1.1750 h   0  0  0  0  0  0  0  0  0  0  0  0
    1.0000   -0.2418    2.2031 h   0  0  0  0  0  0  0  0  0  0  0  0
    1.2188   -2.1047   -1.0679 h   0  0  0  0  0  0  0  0  0  0  0  0
   -1.4937   -1.9832   -0.4206 h   0  0  0  0  0  0  0  0  0  0  0  0
   -1.2595   -1.9803    1.3436 h   0  0  0  0  0  0  0  0  0  0  0  0
    3.6583    0.6548    1.9220 h   0  0  0  0  0  0  0  0  0  0  0  0
    3.8484    1.6994    0.4294 h   0  0  0  0  0  0  0  0  0  0  0  0
   -4.4109    0.0524    0.4373 h   0  0  0  0  0  0  0  0  0  0  0  0
   -3.2975   -0.2205    1.8566 h   0  0  0  0  0  0  0  0  0  0  0  0
   -0.2943   -3.8138    0.2419 h   0  0  0  0  0  0  0  0  0  0  0  0
   -2.1122    1.8871   -1.5201 h   0  0  0  0  0  0  0  0  0  0  0  0
   -2.2327    0.2026   -2.0230 h   0  0  0  0  0  0  0  0  0  0  0  0
   -3.6746    1.0659   -1.5040 h   0  0  0  0  0  0  0  0  0  0  0  0
  1  2  1  0  0  0  0
  2  3  1  0  0  0  0
  3  4  1  0  0  0  0
  4  5  1  0  0  0  0
  1  6  1  0  0  0  0
  5  6  1  0  0  0  0
  1  7  1  0  0  0  0
  5  8  1  0  0  0  0
  7  8  1  0  0  0  0
  6  9  1  0  0  0  0
  1 10  1  0  0  0  0
  8 11  2  0  0  0  0
  2 12  1  0  0  0  0
 12 13  2  0  0  0  0
  2 14  1  0  0  0  0
 10 15  1  0  0  0  0
 12 16  1  0  0  0  0
  3 17  1  0  0  0  0
  3 18  1  0  0  0  0
  4 19  1  0  0  0  0
  4 20  1  0  0  0  0
  5 21  1  0  0  0  0
  6 22  1  0  0  0  0
  7 23  1  0  0  0  0
  7 24  1  0  0  0  0
  9 25  1  0  0  0  0
 10 26  1  0  0  0  0
 10 27  1  0  0  0  0
 11 28  1  0  0  0  0
 11 29  1  0  0  0  0
 13 30  1  0  0  0  0
 13 31  1  0  0  0  0
 15 32  1  0  0  0  0
 16 33  1  0  0  0  0
 16 34  1  0  0  0  0
 16 35  1  0  0  0  0
M  END
