 xtb: 6.7.1 (edcfbbe)
          08092617483D

 35 36  0     0  0            999 V2000
    0.0133   -0.7683   -0.0336 c   0  0  0  0  0  0  0  0  0  0  0  0
    0.5872    0.4619   -0.7900 c   0  0  0  0  0  0  0  0  0  0  0  0
   -0.4238    1.6272   -0.8178 c   0  0  0  0  0  0  0  0  0  0  0  0
   -1.2495    1.7774    0.4566 c   0  0  0  0  0  0  0  0  0  0  0  0
   -1.8239    0.4207    0.8808 c   0  0  0  0  0  0  0  0  0  0  0  0
   -0.6542   -0.4676    1.3223 c   0  0  0  0  0  0  0  0  0  0  0  0
   -1.2359   -1.2360   -0.8098 c   0  0  0  0  0  0  0  0  0  0  0  0
   -2.3460   -0.3486   -0.3053 c   0  0  0  0  0  0  0  0  0  0  0  0
    0.1892    0.0746    2.3052 o   0  0  0  0  0  0  0  0  0  0  0  0
    1.0711   -1.8699    0.1280 c   0  0  0  0  0  0  0  0  0  0  0  0
   -3.5633   -0.2602   -0.8086 c   0  0  0  0  0  0  0  0  0  0  0  0
    1.9845    0.9057   -0.4073 c   0  0  0  0  0  0  0  0  0  0  0  0
    2.9985    0.6518   -1.2257 c   0  0  0  0  0  0  0  0  0  0  0  0
    0.6811    0.1201   -1.8292 h   0  0  0  0  0  0  0  0  0  0  0  0
    1.6032   -2.3410   -1.0822 o   0  0  0  0  0  0  0  0  0  0  0  0
    2.2066    1.6918    0.8444 c   0  0  0  0  0  0  0  0  0  0  0  0
    0.1082    2.5569   -1.0288 h   0  0  0  0  0  0  0  0  0  0  0  0
   -1.1169    1.4583   -1.6448 h   0  0  0  0  0  0  0  0  0  0  0  0
   -0.6333    2.1607    1.2716 h   0  0  0  0  0  0  0  0  0  0  0  0
   -2.0599    2.4863    0.2758 h   0  0  0  0  0  0  0  0  0  0  0  0
   -2.5774    0.5553    1.6621 h   0  0  0  0  0  0  0  0  0  0  0  0
   -1.0566   -1.4253    1.6980 h   0  0  0  0  0  0  0  0  0  0  0  0
   -1.1117   -1.1745   -1.8900 h   0  0  0  0  0  0  0  0  0  0  0  0
   -1.4541   -2.2796   -0.5688 h   0  0  0  0  0  0  0  0  0  0  0  0
   -0.3364    0.2367    3.0958 h   0  0  0  0  0  0  0  0  0  0  0  0
    0.6108   -2.7408    0.6044 h   0  0  0  0  0  0  0  0  0  0  0  0
    1.8650   -1.4978    0.7889 h   0  0  0  0  0  0  0  0  0  0  0  0
   -3.8638   -0.8357   -1.6677 h   0  0  0  0  0  0  0  0  0  0  0  0
   -4.3077    0.3911   -0.3828 h   0  0  0  0  0  0  0  0  0  0  0  0
    4.0026    0.9680   -0.9970 h   0  0  0  0  0  0  0  0  0  0  0  0
    2.8798    0.1427   -2.1699 h   0  0  0  0  0  0  0  0  0  0  0  0
    2.1653   -1.6487   -1.4487 h   0  0  0  0  0  0  0  0  0  0  0  0
    1.6788    2.6430    0.7897 h   0  0  0  0  0  0  0  0  0  0  0  0
    1.8311    1.1485    1.7051 h   0  0  0  0  0  0  0  0  0  0  0  0
    3.2657    1.8957    0.9819 h   0  0  0  0  0  0  0  0  0  0  0  0
  1  2  1  0  0  0  0
  2  3  1  0  0  0  0
  3  4  1  0  0  0  0
  4  5  1  0  0  0  0
  1  6  1  0  0  0  0
  5  6  1  0  0  0  0
  1  7  1  0  0  0  0
  5  8  1  0  0  0  0
  7  8  1  0  0  0  0
  6  9  1  0  0  0  0
  1 10  1  0  0  0  0
  8 11  2  0  0  0  0
  2 12  1  0  0  0  0
 12 13  2  0  0  0  0
  2 14  1  0  0  0  0
 10 15  1  0  0  0  0
 12 16  1  0  0  0  0
  3 17  1  0  0  0  0
  3 18  1  0  0  0  0
  4 19  1  0  0  0  0
  4 20  1  0  0  0  0
  5 21  1  0  0  0  0
  6 22  1  0  0  0  0
  7 23  1  0  0  0  0
  7 24  1  0  0  0  0
  9 25  1  0  0  0  0
 10 26  1  0  0  0  0
 10 27  1  0  0  0  0
 11 28  1  0  0  0  0
 11 29  1  0  0  0  0
 13 30  1  0  0  0  0
 13 31  1  0  0  0  0
 15 32  1  0  0  0  0
 16 33  1  0  0  0  0
 16 34  1  0  0  0  0
 16 35  1  0  0  0  0
M  END
