 xtb: 6.7.1 (edcfbbe)
          08092616283D

 35 36  0     0  0            999 V2000
   -0.0204   -0.5600    0.2954 c   0  0  0  0  0  0  0  0  0  0  0  0
   -1.0007    0.5780    0.6938 c   0  0  0  0  0  0  0  0  0  0  0  0
   -0.3282    1.9632    0.5884 c   0  0  0  0  0  0  0  0  0  0  0  0
    0.5794    2.1497   -0.6272 c   0  0  0  0  0  0  0  0  0  0  0  0
    1.4586    0.9134   -0.8245 c   0  0  0  0  0  0  0  0  0  0  0  0
    0.5622   -0.2958   -1.1052 c   0  0  0  0  0  0  0  0  0  0  0  0
    1.2409   -0.4721    1.1759 c   0  0  0  0  0  0  0  0  0  0  0  0
    2.1162    0.5391    0.4795 c   0  0  0  0  0  0  0  0  0  0  0  0
    1.3687   -1.3508   -1.5998 o   0  0  0  0  0  0  0  0  0  0  0  0
   -0.7554   -1.9055    0.4128 c   0  0  0  0  0  0  0  0  0  0  0  0
    3.2628    1.0119    0.9320 c   0  0  0  0  0  0  0  0  0  0  0  0
   -2.3477    0.5281   -0.0038 c   0  0  0  0  0  0  0  0  0  0  0  0
   -2.5823    0.9251   -1.2455 c   0  0  0  0  0  0  0  0  0  0  0  0
   -1.2150    0.4201    1.7578 h   0  0  0  0  0  0  0  0  0  0  0  0
    0.0163   -3.0454    0.0791 o   0  0  0  0  0  0  0  0  0  0  0  0
   -3.4838    0.0666    0.8663 c   0  0  0  0  0  0  0  0  0  0  0  0
   -1.1051    2.7299    0.5867 h   0  0  0  0  0  0  0  0  0  0  0  0
    0.2795    2.1143    1.4826 h   0  0  0  0  0  0  0  0  0  0  0  0
   -0.0022    2.3254   -1.5322 h   0  0  0  0  0  0  0  0  0  0  0  0
    1.2119    3.0246   -0.4656 h   0  0  0  0  0  0  0  0  0  0  0  0
    2.1815    1.0670   -1.6272 h   0  0  0  0  0  0  0  0  0  0  0  0
   -0.2234   -0.0835   -1.8397 h   0  0  0  0  0  0  0  0  0  0  0  0
    1.7680   -1.4299    1.1950 h   0  0  0  0  0  0  0  0  0  0  0  0
    1.0168   -0.1924    2.2057 h   0  0  0  0  0  0  0  0  0  0  0  0
    0.9249   -2.1869   -1.3806 h   0  0  0  0  0  0  0  0  0  0  0  0
   -1.5924   -1.9203   -0.2897 h   0  0  0  0  0  0  0  0  0  0  0  0
   -1.1475   -2.0146    1.4323 h   0  0  0  0  0  0  0  0  0  0  0  0
    3.6688    0.7078    1.8827 h   0  0  0  0  0  0  0  0  0  0  0  0
    3.8437    1.7211    0.3674 h   0  0  0  0  0  0  0  0  0  0  0  0
   -3.5760    0.8842   -1.6616 h   0  0  0  0  0  0  0  0  0  0  0  0
   -1.8245    1.3101   -1.9019 h   0  0  0  0  0  0  0  0  0  0  0  0
    0.7276   -3.1409    0.7264 h   0  0  0  0  0  0  0  0  0  0  0  0
   -3.6242    0.7702    1.6873 h   0  0  0  0  0  0  0  0  0  0  0  0
   -4.4102    0.0093    0.3008 h   0  0  0  0  0  0  0  0  0  0  0  0
   -3.2778   -0.9101    1.2990 h   0  0  0  0  0  0  0  0  0  0  0  0
  1  2  1  0  0  0  0
  2  3  1  0  0  0  0
  3  4  1  0  0  0  0
  4  5  1  0  0  0  0
  1  6  1  0  0  0  0
  5  6  1  0  0  0  0
  1  7  1  0  0  0  0
  5  8  1  0  0  0  0
  7  8  1  0  0  0  0
  6  9  1  0  0  0  0
  1 10  1  0  0  0  0
  8 11  2  0  0  0  0
  2 12  1  0  0  0  0
 12 13  2  0  0  0  0
  2 14  1  0  0  0  0
 10 15  1  0  0  0  0
 12 16  1  0  0  0  0
  3 17  1  0  0  0  0
  3 18  1  0  0  0  0
  4 19  1  0  0  0  0
  4 20  1  0  0  0  0
  5 21  1  0  0  0  0
  6 22  1  0  0  0  0
  7 23  1  0  0  0  0
  7 24  1  0  0  0  0
  9 25  1  0  0  0  0
 10 26  1  0  0  0  0
 10 27  1  0  0  0  0
 11 28  1  0  0  0  0
 11 29  1  0  0  0  0
 13 30  1  0  0  0  0
 13 31  1  0  0  0  0
 15 32  1  0  0  0  0
 16 33  1  0  0  0  0
 16 34  1  0  0  0  0
 16 35  1  0  0  0  0
M  END
