 xtb: 6.7.1 (edcfbbe)
          08092622183D

 50 55  0     0  0            999 V2000
   -0.3593    0.1153   -2.5543 c   0  0  0  0  0  0  0  0  0  0  0  0
    1.1606    0.2077   -2.6436 c   0  0  0  0  0  0  0  0  0  0  0  0
   -2.6833    2.9140    0.7514 c   0  0  0  0  0  0  0  0  0  0  0  0
   -3.7709    2.3357    0.1192 c   0  0  0  0  0  0  0  0  0  0  0  0
   -3.6167    1.1236   -0.5192 c   0  0  0  0  0  0  0  0  0  0  0  0
   -2.3891    0.4600   -0.5134 c   0  0  0  0  0  0  0  0  0  0  0  0
   -1.2990    0.9993    0.1912 c   0  0  0  0  0  0  0  0  0  0  0  0
   -1.4747    2.2406    0.7906 c   0  0  0  0  0  0  0  0  0  0  0  0
   -2.2413   -0.7190   -1.2140 n   0  0  0  0  0  0  0  0  0  0  0  0
   -0.8890   -1.0044   -1.6330 c   0  0  0  0  0  0  0  0  0  0  0  0
   -0.0338   -1.1504   -0.3516 c   0  0  0  0  0  0  0  0  0  0  0  0
   -0.0113    0.2119    0.3919 c   0  0  0  0  0  0  0  0  0  0  0  0
    1.4071   -1.4256   -0.8072 c   0  0  0  0  0  0  0  0  0  0  0  0
    1.8354   -0.0297   -1.2853 c   0  0  0  0  0  0  0  0  0  0  0  0
    1.2796    0.8445   -0.1671 c   0  0  0  0  0  0  0  0  0  0  0  0
    3.3048    0.2578   -1.4283 c   0  0  0  0  0  0  0  0  0  0  0  0
    3.9611    1.1211   -0.6655 c   0  0  0  0  0  0  0  0  0  0  0  0
    3.3624    1.7420    0.5693 c   0  0  0  0  0  0  0  0  0  0  0  0
    2.2747    0.8325    0.9761 n   0  0  0  0  0  0  0  0  0  0  0  0
    1.4152    1.1808    2.1202 c   0  0  0  0  0  0  0  0  0  0  0  0
    0.2843    0.1679    1.9181 c   0  0  0  0  0  0  0  0  0  0  0  0
    2.8462   -0.3575    1.2719 o   0  0  0  0  0  0  0  0  0  0  0  0
    1.1453    1.8851   -0.4645 h   0  0  0  0  0  0  0  0  0  0  0  0
   -0.6229   -2.3073    0.4228 c   0  0  0  0  0  0  0  0  0  0  0  0
   -0.3344   -3.4669    0.2224 o   0  0  0  0  0  0  0  0  0  0  0  0
   -1.5387   -1.9278    1.3051 o   0  0  0  0  0  0  0  0  0  0  0  0
   -2.2039   -2.9585    2.0341 c   0  0  0  0  0  0  0  0  0  0  0  0
   -0.7756   -0.0322   -3.5534 h   0  0  0  0  0  0  0  0  0  0  0  0
   -0.7438    1.0649   -2.1776 h   0  0  0  0  0  0  0  0  0  0  0  0
    1.5442   -0.5458   -3.3339 h   0  0  0  0  0  0  0  0  0  0  0  0
    1.4361    1.1895   -3.0356 h   0  0  0  0  0  0  0  0  0  0  0  0
   -2.7759    3.8799    1.2246 h   0  0  0  0  0  0  0  0  0  0  0  0
   -4.7270    2.8375    0.1046 h   0  0  0  0  0  0  0  0  0  0  0  0
   -4.4462    0.6731   -1.0458 h   0  0  0  0  0  0  0  0  0  0  0  0
   -0.6533    2.7082    1.3077 h   0  0  0  0  0  0  0  0  0  0  0  0
   -2.9647   -0.9009   -1.8946 h   0  0  0  0  0  0  0  0  0  0  0  0
   -0.8810   -1.9666   -2.1547 h   0  0  0  0  0  0  0  0  0  0  0  0
    2.0269   -1.7387    0.0323 h   0  0  0  0  0  0  0  0  0  0  0  0
    1.4469   -2.1824   -1.5876 h   0  0  0  0  0  0  0  0  0  0  0  0
    3.8032   -0.2303   -2.2526 h   0  0  0  0  0  0  0  0  0  0  0  0
    5.0026    1.3401   -0.8450 h   0  0  0  0  0  0  0  0  0  0  0  0
    2.9909    2.7568    0.4001 h   0  0  0  0  0  0  0  0  0  0  0  0
    4.1042    1.7500    1.3705 h   0  0  0  0  0  0  0  0  0  0  0  0
    1.9705    1.0063    3.0407 h   0  0  0  0  0  0  0  0  0  0  0  0
    1.0915    2.2186    2.0597 h   0  0  0  0  0  0  0  0  0  0  0  0
   -0.5962    0.3927    2.5139 h   0  0  0  0  0  0  0  0  0  0  0  0
    0.6723   -0.8116    2.1971 h   0  0  0  0  0  0  0  0  0  0  0  0
   -2.9296   -2.4526    2.6646 h   0  0  0  0  0  0  0  0  0  0  0  0
   -2.6971   -3.6464    1.3456 h   0  0  0  0  0  0  0  0  0  0  0  0
   -1.4854   -3.5167    2.6369 h   0  0  0  0  0  0  0  0  0  0  0  0
  1  2  1  0  0  0  0
  3  4  4  0  0  0  0
  4  5  4  0  0  0  0
  5  6  4  0  0  0  0
  6  7  4  0  0  0  0
  3  8  4  0  0  0  0
  7  8  4  0  0  0  0
  6  9  1  0  0  0  0
  1 10  1  0  0  0  0
  9 10  1  0  0  0  0
 10 11  1  0  0  0  0
  7 12  1  0  0  0  0
 11 12  1  0  0  0  0
 11 13  1  0  0  0  0
  2 14  1  0  0  0  0
 13 14  1  0  0  0  0
 12 15  1  0  0  0  0
 14 15  1  0  0  0  0
 14 16  1  0  0  0  0
 16 17  2  0  0  0  0
 17 18  1  0  0  0  0
 15 19  1  0  0  0  0
 18 19  1  0  0  0  0
 19 20  1  0  0  0  0
 12 21  1  0  0  0  0
 20 21  1  0  0  0  0
 19 22  1  0  0  0  0
 15 23  1  0  0  0  0
 11 24  1  0  0  0  0
 24 25  2  0  0  0  0
 24 26  1  0  0  0  0
 26 27  1  0  0  0  0
  1 28  1  0  0  0  0
  1 29  1  0  0  0  0
  2 30  1  0  0  0  0
  2 31  1  0  0  0  0
  3 32  1  0  0  0  0
  4 33  1  0  0  0  0
  5 34  1  0  0  0  0
  8 35  1  0  0  0  0
  9 36  1  0  0  0  0
 10 37  1  0  0  0  0
 13 38  1  0  0  0  0
 13 39  1  0  0  0  0
 16 40  1  0  0  0  0
 17 41  1  0  0  0  0
 18 42  1  0  0  0  0
 18 43  1  0  0  0  0
 20 44  1  0  0  0  0
 20 45  1  0  0  0  0
 21 46  1  0  0  0  0
 21 47  1  0  0  0  0
 27 48  1  0  0  0  0
 27 49  1  0  0  0  0
 27 50  1  0  0  0  0
M  END
