 xtb: 6.7.1 (edcfbbe)
          08092612213D

 54 57  0     0  0            999 V2000
   -1.3224   -1.5008    1.9571 c   0  0  0  0  0  0  0  0  0  0  0  0
   -2.7137   -1.3005    1.3727 c   0  0  0  0  0  0  0  0  0  0  0  0
   -2.7415   -0.6568   -0.0243 c   0  0  0  0  0  0  0  0  0  0  0  0
   -1.6856    0.5071   -0.1724 c   0  0  0  0  0  0  0  0  0  0  0  0
   -0.2923    0.3008    0.5393 c   0  0  0  0  0  0  0  0  0  0  0  0
   -0.5555   -0.1839    1.9777 c   0  0  0  0  0  0  0  0  0  0  0  0
   -1.3737    0.7900   -1.6498 c   0  0  0  0  0  0  0  0  0  0  0  0
   -0.5803    2.0854   -1.7964 c   0  0  0  0  0  0  0  0  0  0  0  0
    0.7167    2.0776   -0.9824 c   0  0  0  0  0  0  0  0  0  0  0  0
    0.5551    1.6489    0.5051 c   0  0  0  0  0  0  0  0  0  0  0  0
    0.7946   -0.6893   -0.0013 c   0  0  0  0  0  0  0  0  0  0  0  0
    1.9362    1.1718    0.9744 c   0  0  0  0  0  0  0  0  0  0  0  0
    2.0457   -0.1737    0.3621 c   0  0  0  0  0  0  0  0  0  0  0  0
    3.2616   -0.7945    0.1439 c   0  0  0  0  0  0  0  0  0  0  0  0
    3.2670   -2.0308   -0.4812 c   0  0  0  0  0  0  0  0  0  0  0  0
    2.0600   -2.5766   -0.8407 c   0  0  0  0  0  0  0  0  0  0  0  0
    0.8265   -1.9535   -0.6045 c   0  0  0  0  0  0  0  0  0  0  0  0
   -0.2029   -2.7181   -1.0261 o   0  0  0  0  0  0  0  0  0  0  0  0
    4.4081   -0.1570    0.5480 o   0  0  0  0  0  0  0  0  0  0  0  0
   -2.5360   -1.7070   -0.9666 o   0  0  0  0  0  0  0  0  0  0  0  0
   -4.1988   -0.2185   -0.2907 c   0  0  0  0  0  0  0  0  0  0  0  0
   -2.4168    1.7294    0.4137 c   0  0  0  0  0  0  0  0  0  0  0  0
    1.4107    3.4301   -1.1559 c   0  0  0  0  0  0  0  0  0  0  0  0
    0.1872    2.8196    1.4334 c   0  0  0  0  0  0  0  0  0  0  0  0
   -1.4250   -1.8800    2.9766 h   0  0  0  0  0  0  0  0  0  0  0  0
   -0.7706   -2.2474    1.3884 h   0  0  0  0  0  0  0  0  0  0  0  0
   -3.2893   -0.6711    2.0533 h   0  0  0  0  0  0  0  0  0  0  0  0
   -3.2247   -2.2619    1.2952 h   0  0  0  0  0  0  0  0  0  0  0  0
    0.3896   -0.3299    2.4996 h   0  0  0  0  0  0  0  0  0  0  0  0
   -1.1379    0.5510    2.5344 h   0  0  0  0  0  0  0  0  0  0  0  0
   -0.7799   -0.0285   -2.0642 h   0  0  0  0  0  0  0  0  0  0  0  0
   -2.2960    0.8789   -2.2327 h   0  0  0  0  0  0  0  0  0  0  0  0
   -0.3178    2.2161   -2.8498 h   0  0  0  0  0  0  0  0  0  0  0  0
   -1.1999    2.9390   -1.5201 h   0  0  0  0  0  0  0  0  0  0  0  0
    1.3627    1.3190   -1.4382 h   0  0  0  0  0  0  0  0  0  0  0  0
    1.9844    1.1110    2.0641 h   0  0  0  0  0  0  0  0  0  0  0  0
    2.7468    1.8231    0.6513 h   0  0  0  0  0  0  0  0  0  0  0  0
    4.1928   -2.5528   -0.6804 h   0  0  0  0  0  0  0  0  0  0  0  0
    2.0145   -3.5407   -1.3227 h   0  0  0  0  0  0  0  0  0  0  0  0
   -1.0764   -2.3033   -0.8628 h   0  0  0  0  0  0  0  0  0  0  0  0
    5.1645   -0.7092    0.3204 h   0  0  0  0  0  0  0  0  0  0  0  0
   -2.6673   -1.3601   -1.8561 h   0  0  0  0  0  0  0  0  0  0  0  0
   -4.7959   -1.1284   -0.3413 h   0  0  0  0  0  0  0  0  0  0  0  0
   -4.6136    0.4056    0.4919 h   0  0  0  0  0  0  0  0  0  0  0  0
   -4.2920    0.2952   -1.2459 h   0  0  0  0  0  0  0  0  0  0  0  0
   -2.7892    1.5241    1.4123 h   0  0  0  0  0  0  0  0  0  0  0  0
   -1.7855    2.5944    0.4627 h   0  0  0  0  0  0  0  0  0  0  0  0
   -3.2567    1.9933   -0.2217 h   0  0  0  0  0  0  0  0  0  0  0  0
    2.3332    3.4835   -0.5857 h   0  0  0  0  0  0  0  0  0  0  0  0
    1.6572    3.5777   -2.2055 h   0  0  0  0  0  0  0  0  0  0  0  0
    0.7688    4.2517   -0.8476 h   0  0  0  0  0  0  0  0  0  0  0  0
    1.1088    3.2784    1.7883 h   0  0  0  0  0  0  0  0  0  0  0  0
   -0.3736    3.6127    0.9472 h   0  0  0  0  0  0  0  0  0  0  0  0
   -0.3635    2.4852    2.3067 h   0  0  0  0  0  0  0  0  0  0  0  0
  1  2  1  0  0  0  0
  2  3  1  0  0  0  0
  3  4  1  0  0  0  0
  4  5  1  0  0  0  0
  1  6  1  0  0  0  0
  5  6  1  0  0  0  0
  4  7  1  0  0  0  0
  7  8  1  0  0  0  0
  8  9  1  0  0  0  0
  5 10  1  0  0  0  0
  9 10  1  0  0  0  0
  5 11  1  0  0  0  0
 10 12  1  0  0  0  0
 11 13  4  0  0  0  0
 12 13  1  0  0  0  0
 13 14  4  0  0  0  0
 14 15  4  0  0  0  0
 15 16  4  0  0  0  0
 11 17  4  0  0  0  0
 16 17  4  0  0  0  0
 17 18  1  0  0  0  0
 14 19  1  0  0  0  0
  3 20  1  0  0  0  0
  3 21  1  0  0  0  0
  4 22  1  0  0  0  0
  9 23  1  0  0  0  0
 10 24  1  0  0  0  0
  1 25  1  0  0  0  0
  1 26  1  0  0  0  0
  2 27  1  0  0  0  0
  2 28  1  0  0  0  0
  6 29  1  0  0  0  0
  6 30  1  0  0  0  0
  7 31  1  0  0  0  0
  7 32  1  0  0  0  0
  8 33  1  0  0  0  0
  8 34  1  0  0  0  0
  9 35  1  0  0  0  0
 12 36  1  0  0  0  0
 12 37  1  0  0  0  0
 15 38  1  0  0  0  0
 16 39  1  0  0  0  0
 18 40  1  0  0  0  0
 19 41  1  0  0  0  0
 20 42  1  0  0  0  0
 21 43  1  0  0  0  0
 21 44  1  0  0  0  0
 21 45  1  0  0  0  0
 22 46  1  0  0  0  0
 22 47  1  0  0  0  0
 22 48  1  0  0  0  0
 23 49  1  0  0  0  0
 23 50  1  0  0  0  0
 23 51  1  0  0  0  0
 24 52  1  0  0  0  0
 24 53  1  0  0  0  0
 24 54  1  0  0  0  0
M  END
