 xtb: 6.7.1 (edcfbbe)
          08092617053D

 35 36  0     0  0            999 V2000
    0.0994   -0.6333    0.0972 c   0  0  0  0  0  0  0  0  0  0  0  0
   -0.9219    0.3746    0.6832 c   0  0  0  0  0  0  0  0  0  0  0  0
   -0.3483    1.8096    0.7178 c   0  0  0  0  0  0  0  0  0  0  0  0
    0.5486    2.1936   -0.4598 c   0  0  0  0  0  0  0  0  0  0  0  0
    1.5036    1.0482   -0.8103 c   0  0  0  0  0  0  0  0  0  0  0  0
    0.6572   -0.1467   -1.2573 c   0  0  0  0  0  0  0  0  0  0  0  0
    1.3651   -0.6085    0.9790 c   0  0  0  0  0  0  0  0  0  0  0  0
    2.1905    0.5263    0.4274 c   0  0  0  0  0  0  0  0  0  0  0  0
    1.4107   -1.1287   -1.9398 o   0  0  0  0  0  0  0  0  0  0  0  0
   -0.5105   -2.0380   -0.0176 c   0  0  0  0  0  0  0  0  0  0  0  0
    3.3242    0.9801    0.9309 c   0  0  0  0  0  0  0  0  0  0  0  0
   -2.3149    0.3085    0.0905 c   0  0  0  0  0  0  0  0  0  0  0  0
   -3.3236   -0.1166    0.8415 c   0  0  0  0  0  0  0  0  0  0  0  0
   -1.0473    0.0819    1.7333 h   0  0  0  0  0  0  0  0  0  0  0  0
   -0.9203   -2.5818    1.2179 o   0  0  0  0  0  0  0  0  0  0  0  0
   -2.5695    0.7608   -1.3159 c   0  0  0  0  0  0  0  0  0  0  0  0
   -1.1758    2.5176    0.7975 h   0  0  0  0  0  0  0  0  0  0  0  0
    0.2463    1.9071    1.6282 h   0  0  0  0  0  0  0  0  0  0  0  0
   -0.0394    2.4386   -1.3456 h   0  0  0  0  0  0  0  0  0  0  0  0
    1.1226    3.0817   -0.1878 h   0  0  0  0  0  0  0  0  0  0  0  0
    2.2089    1.3642   -1.5825 h   0  0  0  0  0  0  0  0  0  0  0  0
   -0.1185    0.1328   -1.9675 h   0  0  0  0  0  0  0  0  0  0  0  0
    1.9039   -1.5563    0.8956 h   0  0  0  0  0  0  0  0  0  0  0  0
    1.1336   -0.4726    2.0353 h   0  0  0  0  0  0  0  0  0  0  0  0
    2.1825   -1.3436   -1.3996 h   0  0  0  0  0  0  0  0  0  0  0  0
    0.2375   -2.7314   -0.4103 h   0  0  0  0  0  0  0  0  0  0  0  0
   -1.3516   -2.0152   -0.7222 h   0  0  0  0  0  0  0  0  0  0  0  0
    3.7545    0.5634    1.8264 h   0  0  0  0  0  0  0  0  0  0  0  0
    3.8653    1.7894    0.4700 h   0  0  0  0  0  0  0  0  0  0  0  0
   -4.3327   -0.1593    0.4660 h   0  0  0  0  0  0  0  0  0  0  0  0
   -3.1976   -0.4285    1.8663 h   0  0  0  0  0  0  0  0  0  0  0  0
   -1.6802   -2.0718    1.5269 h   0  0  0  0  0  0  0  0  0  0  0  0
   -2.0814    1.7108   -1.5151 h   0  0  0  0  0  0  0  0  0  0  0  0
   -2.1997    0.0285   -2.0326 h   0  0  0  0  0  0  0  0  0  0  0  0
   -3.6381    0.8788   -1.4821 h   0  0  0  0  0  0  0  0  0  0  0  0
  1  2  1  0  0  0  0
  2  3  1  0  0  0  0
  3  4  1  0  0  0  0
  4  5  1  0  0  0  0
  1  6  1  0  0  0  0
  5  6  1  0  0  0  0
  1  7  1  0  0  0  0
  5  8  1  0  0  0  0
  7  8  1  0  0  0  0
  6  9  1  0  0  0  0
  1 10  1  0  0  0  0
  8 11  2  0  0  0  0
  2 12  1  0  0  0  0
 12 13  2  0  0  0  0
  2 14  1  0  0  0  0
 10 15  1  0  0  0  0
 12 16  1  0  0  0  0
  3 17  1  0  0  0  0
  3 18  1  0  0  0  0
  4 19  1  0  0  0  0
  4 20  1  0  0  0  0
  5 21  1  0  0  0  0
  6 22  1  0  0  0  0
  7 23  1  0  0  0  0
  7 24  1  0  0  0  0
  9 25  1  0  0  0  0
 10 26  1  0  0  0  0
 10 27  1  0  0  0  0
 11 28  1  0  0  0  0
 11 29  1  0  0  0  0
 13 30  1  0  0  0  0
 13 31  1  0  0  0  0
 15 32  1  0  0  0  0
 16 33  1  0  0  0  0
 16 34  1  0  0  0  0
 16 35  1  0  0  0  0
M  END
