 xtb: 6.7.1 (edcfbbe)
          08092612213D

 54 57  0     0  0            999 V2000
   -1.7140   -0.9619    2.3079 c   0  0  0  0  0  0  0  0  0  0  0  0
   -2.1137   -1.7404    1.0685 c   0  0  0  0  0  0  0  0  0  0  0  0
   -2.6240   -0.7951   -0.0296 c   0  0  0  0  0  0  0  0  0  0  0  0
   -1.6963    0.4897   -0.1506 c   0  0  0  0  0  0  0  0  0  0  0  0
   -0.3032    0.3312    0.5421 c   0  0  0  0  0  0  0  0  0  0  0  0
   -0.4946   -0.0767    2.0316 c   0  0  0  0  0  0  0  0  0  0  0  0
   -1.4362    0.8374   -1.6279 c   0  0  0  0  0  0  0  0  0  0  0  0
   -0.5919    2.0991   -1.7904 c   0  0  0  0  0  0  0  0  0  0  0  0
    0.7397    2.0132   -1.0425 c   0  0  0  0  0  0  0  0  0  0  0  0
    0.5592    1.6643    0.4594 c   0  0  0  0  0  0  0  0  0  0  0  0
    0.7638   -0.6633   -0.0150 c   0  0  0  0  0  0  0  0  0  0  0  0
    1.9066    1.1703    1.0105 c   0  0  0  0  0  0  0  0  0  0  0  0
    2.0083   -0.1985    0.4392 c   0  0  0  0  0  0  0  0  0  0  0  0
    3.2061   -0.8685    0.2869 c   0  0  0  0  0  0  0  0  0  0  0  0
    3.1965   -2.0878   -0.3752 c   0  0  0  0  0  0  0  0  0  0  0  0
    2.0075   -2.5381   -0.8922 c   0  0  0  0  0  0  0  0  0  0  0  0
    0.7916   -1.8520   -0.7512 c   0  0  0  0  0  0  0  0  0  0  0  0
   -0.2063   -2.4678   -1.4269 o   0  0  0  0  0  0  0  0  0  0  0  0
    4.3521   -0.2969    0.7792 o   0  0  0  0  0  0  0  0  0  0  0  0
   -2.6324   -1.5592   -1.2384 o   0  0  0  0  0  0  0  0  0  0  0  0
   -4.1097   -0.5022    0.2444 c   0  0  0  0  0  0  0  0  0  0  0  0
   -2.4659    1.6638    0.4773 c   0  0  0  0  0  0  0  0  0  0  0  0
    1.5370    3.2950   -1.2902 c   0  0  0  0  0  0  0  0  0  0  0  0
    0.1736    2.9086    1.2724 c   0  0  0  0  0  0  0  0  0  0  0  0
   -2.5604   -0.3641    2.6506 h   0  0  0  0  0  0  0  0  0  0  0  0
   -1.4753   -1.6606    3.1116 h   0  0  0  0  0  0  0  0  0  0  0  0
   -2.8984   -2.4612    1.3033 h   0  0  0  0  0  0  0  0  0  0  0  0
   -1.2547   -2.3053    0.7146 h   0  0  0  0  0  0  0  0  0  0  0  0
    0.3967   -0.6179    2.3489 h   0  0  0  0  0  0  0  0  0  0  0  0
   -0.5676    0.8111    2.6577 h   0  0  0  0  0  0  0  0  0  0  0  0
   -0.9074    0.0164   -2.1149 h   0  0  0  0  0  0  0  0  0  0  0  0
   -2.3869    0.9906   -2.1492 h   0  0  0  0  0  0  0  0  0  0  0  0
   -0.3811    2.2341   -2.8547 h   0  0  0  0  0  0  0  0  0  0  0  0
   -1.1512    2.9791   -1.4703 h   0  0  0  0  0  0  0  0  0  0  0  0
    1.3054    1.1885   -1.4886 h   0  0  0  0  0  0  0  0  0  0  0  0
    1.9005    1.1553    2.1020 h   0  0  0  0  0  0  0  0  0  0  0  0
    2.7507    1.7845    0.6999 h   0  0  0  0  0  0  0  0  0  0  0  0
    4.1071   -2.6553   -0.5089 h   0  0  0  0  0  0  0  0  0  0  0  0
    1.9665   -3.4587   -1.4529 h   0  0  0  0  0  0  0  0  0  0  0  0
   -1.0817   -2.0474   -1.3239 h   0  0  0  0  0  0  0  0  0  0  0  0
    5.0966   -0.8755    0.5795 h   0  0  0  0  0  0  0  0  0  0  0  0
   -3.0989   -1.0697   -1.9242 h   0  0  0  0  0  0  0  0  0  0  0  0
   -4.5397    0.1353   -0.5260 h   0  0  0  0  0  0  0  0  0  0  0  0
   -4.6352   -1.4560    0.2120 h   0  0  0  0  0  0  0  0  0  0  0  0
   -4.2843   -0.0545    1.2153 h   0  0  0  0  0  0  0  0  0  0  0  0
   -2.6665    1.4992    1.5293 h   0  0  0  0  0  0  0  0  0  0  0  0
   -1.9172    2.5838    0.3842 h   0  0  0  0  0  0  0  0  0  0  0  0
   -3.4096    1.8150   -0.0380 h   0  0  0  0  0  0  0  0  0  0  0  0
    2.4852    3.2829   -0.7611 h   0  0  0  0  0  0  0  0  0  0  0  0
    1.7496    3.3870   -2.3535 h   0  0  0  0  0  0  0  0  0  0  0  0
    0.9834    4.1791   -0.9840 h   0  0  0  0  0  0  0  0  0  0  0  0
   -0.3903    3.6382    0.6989 h   0  0  0  0  0  0  0  0  0  0  0  0
   -0.3898    2.6687    2.1688 h   0  0  0  0  0  0  0  0  0  0  0  0
    1.0894    3.4048    1.5897 h   0  0  0  0  0  0  0  0  0  0  0  0
  1  2  1  0  0  0  0
  2  3  1  0  0  0  0
  3  4  1  0  0  0  0
  4  5  1  0  0  0  0
  1  6  1  0  0  0  0
  5  6  1  0  0  0  0
  4  7  1  0  0  0  0
  7  8  1  0  0  0  0
  8  9  1  0  0  0  0
  5 10  1  0  0  0  0
  9 10  1  0  0  0  0
  5 11  1  0  0  0  0
 10 12  1  0  0  0  0
 11 13  4  0  0  0  0
 12 13  1  0  0  0  0
 13 14  4  0  0  0  0
 14 15  4  0  0  0  0
 15 16  4  0  0  0  0
 11 17  4  0  0  0  0
 16 17  4  0  0  0  0
 17 18  1  0  0  0  0
 14 19  1  0  0  0  0
  3 20  1  0  0  0  0
  3 21  1  0  0  0  0
  4 22  1  0  0  0  0
  9 23  1  0  0  0  0
 10 24  1  0  0  0  0
  1 25  1  0  0  0  0
  1 26  1  0  0  0  0
  2 27  1  0  0  0  0
  2 28  1  0  0  0  0
  6 29  1  0  0  0  0
  6 30  1  0  0  0  0
  7 31  1  0  0  0  0
  7 32  1  0  0  0  0
  8 33  1  0  0  0  0
  8 34  1  0  0  0  0
  9 35  1  0  0  0  0
 12 36  1  0  0  0  0
 12 37  1  0  0  0  0
 15 38  1  0  0  0  0
 16 39  1  0  0  0  0
 18 40  1  0  0  0  0
 19 41  1  0  0  0  0
 20 42  1  0  0  0  0
 21 43  1  0  0  0  0
 21 44  1  0  0  0  0
 21 45  1  0  0  0  0
 22 46  1  0  0  0  0
 22 47  1  0  0  0  0
 22 48  1  0  0  0  0
 23 49  1  0  0  0  0
 23 50  1  0  0  0  0
 23 51  1  0  0  0  0
 24 52  1  0  0  0  0
 24 53  1  0  0  0  0
 24 54  1  0  0  0  0
M  END
