 xtb: 6.7.1 (edcfbbe)
          08092617053D

 35 36  0     0  0            999 V2000
    0.0914   -0.6500    0.0907 c   0  0  0  0  0  0  0  0  0  0  0  0
   -0.9598    0.3097    0.7151 c   0  0  0  0  0  0  0  0  0  0  0  0
   -0.3618    1.7163    0.9001 c   0  0  0  0  0  0  0  0  0  0  0  0
    0.4744    2.2101   -0.2812 c   0  0  0  0  0  0  0  0  0  0  0  0
    1.4300    1.1118   -0.7599 c   0  0  0  0  0  0  0  0  0  0  0  0
    0.6039   -0.0823   -1.2488 c   0  0  0  0  0  0  0  0  0  0  0  0
    1.3733   -0.6268    0.9526 c   0  0  0  0  0  0  0  0  0  0  0  0
    2.1782    0.5301    0.4129 c   0  0  0  0  0  0  0  0  0  0  0  0
    1.3762   -1.0014   -1.9967 o   0  0  0  0  0  0  0  0  0  0  0  0
   -0.4633   -2.0713   -0.0616 c   0  0  0  0  0  0  0  0  0  0  0  0
    3.3401    0.9514    0.8789 c   0  0  0  0  0  0  0  0  0  0  0  0
   -2.3122    0.2996    0.0244 c   0  0  0  0  0  0  0  0  0  0  0  0
   -3.2433   -0.5499    0.4385 c   0  0  0  0  0  0  0  0  0  0  0  0
   -1.1538   -0.0924    1.7172 h   0  0  0  0  0  0  0  0  0  0  0  0
   -0.8222   -2.6676    1.1679 o   0  0  0  0  0  0  0  0  0  0  0  0
   -2.6252    1.2758   -1.0716 c   0  0  0  0  0  0  0  0  0  0  0  0
   -1.1659    2.4234    1.1099 h   0  0  0  0  0  0  0  0  0  0  0  0
    0.2813    1.7013    1.7823 h   0  0  0  0  0  0  0  0  0  0  0  0
   -0.1585    2.5112   -1.1154 h   0  0  0  0  0  0  0  0  0  0  0  0
    1.0519    3.0821    0.0333 h   0  0  0  0  0  0  0  0  0  0  0  0
    2.0943    1.4965   -1.5372 h   0  0  0  0  0  0  0  0  0  0  0  0
   -0.2036    0.1959   -1.9240 h   0  0  0  0  0  0  0  0  0  0  0  0
    1.9333   -1.5599    0.8317 h   0  0  0  0  0  0  0  0  0  0  0  0
    1.1606   -0.5069    2.0156 h   0  0  0  0  0  0  0  0  0  0  0  0
    2.1878   -1.1818   -1.5037 h   0  0  0  0  0  0  0  0  0  0  0  0
    0.2755   -2.6942   -0.5841 h   0  0  0  0  0  0  0  0  0  0  0  0
   -1.3766   -2.0553   -0.6594 h   0  0  0  0  0  0  0  0  0  0  0  0
    3.8120    0.4914    1.7314 h   0  0  0  0  0  0  0  0  0  0  0  0
    3.8633    1.7787    0.4301 h   0  0  0  0  0  0  0  0  0  0  0  0
   -4.2199   -0.5893   -0.0159 h   0  0  0  0  0  0  0  0  0  0  0  0
   -3.0625   -1.2580    1.2296 h   0  0  0  0  0  0  0  0  0  0  0  0
   -0.0364   -2.6973    1.7291 h   0  0  0  0  0  0  0  0  0  0  0  0
   -2.4713    2.2999   -0.7383 h   0  0  0  0  0  0  0  0  0  0  0  0
   -2.0038    1.1084   -1.9487 h   0  0  0  0  0  0  0  0  0  0  0  0
   -3.6650    1.1690   -1.3723 h   0  0  0  0  0  0  0  0  0  0  0  0
  1  2  1  0  0  0  0
  2  3  1  0  0  0  0
  3  4  1  0  0  0  0
  4  5  1  0  0  0  0
  1  6  1  0  0  0  0
  5  6  1  0  0  0  0
  1  7  1  0  0  0  0
  5  8  1  0  0  0  0
  7  8  1  0  0  0  0
  6  9  1  0  0  0  0
  1 10  1  0  0  0  0
  8 11  2  0  0  0  0
  2 12  1  0  0  0  0
 12 13  2  0  0  0  0
  2 14  1  0  0  0  0
 10 15  1  0  0  0  0
 12 16  1  0  0  0  0
  3 17  1  0  0  0  0
  3 18  1  0  0  0  0
  4 19  1  0  0  0  0
  4 20  1  0  0  0  0
  5 21  1  0  0  0  0
  6 22  1  0  0  0  0
  7 23  1  0  0  0  0
  7 24  1  0  0  0  0
  9 25  1  0  0  0  0
 10 26  1  0  0  0  0
 10 27  1  0  0  0  0
 11 28  1  0  0  0  0
 11 29  1  0  0  0  0
 13 30  1  0  0  0  0
 13 31  1  0  0  0  0
 15 32  1  0  0  0  0
 16 33  1  0  0  0  0
 16 34  1  0  0  0  0
 16 35  1  0  0  0  0
M  END
