 xtb: 6.7.1 (edcfbbe)
          08092615283D

 35 36  0     0  0            999 V2000
    0.0983   -0.6336    0.0968 c   0  0  0  0  0  0  0  0  0  0  0  0
   -0.9185    0.3772    0.6836 c   0  0  0  0  0  0  0  0  0  0  0  0
   -0.3434    1.8111    0.7148 c   0  0  0  0  0  0  0  0  0  0  0  0
    0.5528    2.1915   -0.4643 c   0  0  0  0  0  0  0  0  0  0  0  0
    1.5048    1.0440   -0.8133 c   0  0  0  0  0  0  0  0  0  0  0  0
    0.6574   -0.1517   -1.2595 c   0  0  0  0  0  0  0  0  0  0  0  0
    1.3640   -0.6103    0.9776 c   0  0  0  0  0  0  0  0  0  0  0  0
    2.1885    0.5250    0.4270 c   0  0  0  0  0  0  0  0  0  0  0  0
    1.4042   -1.1316   -1.9382 o   0  0  0  0  0  0  0  0  0  0  0  0
   -0.5155   -2.0377   -0.0123 c   0  0  0  0  0  0  0  0  0  0  0  0
    3.3176    0.9844    0.9344 c   0  0  0  0  0  0  0  0  0  0  0  0
   -2.3113    0.3119    0.0927 c   0  0  0  0  0  0  0  0  0  0  0  0
   -3.3197   -0.1144    0.8425 c   0  0  0  0  0  0  0  0  0  0  0  0
   -1.0434    0.0868    1.7350 h   0  0  0  0  0  0  0  0  0  0  0  0
   -0.9206   -2.5759    1.2207 o   0  0  0  0  0  0  0  0  0  0  0  0
   -2.5659    0.7618   -1.3141 c   0  0  0  0  0  0  0  0  0  0  0  0
   -1.1697    2.5207    0.7952 h   0  0  0  0  0  0  0  0  0  0  0  0
    0.2535    1.9095    1.6238 h   0  0  0  0  0  0  0  0  0  0  0  0
   -0.0367    2.4374   -1.3495 h   0  0  0  0  0  0  0  0  0  0  0  0
    1.1279    3.0796   -0.1941 h   0  0  0  0  0  0  0  0  0  0  0  0
    2.2120    1.3588   -1.5841 h   0  0  0  0  0  0  0  0  0  0  0  0
   -0.1191    0.1322   -1.9678 h   0  0  0  0  0  0  0  0  0  0  0  0
    1.9024   -1.5583    0.8929 h   0  0  0  0  0  0  0  0  0  0  0  0
    1.1339   -0.4759    2.0344 h   0  0  0  0  0  0  0  0  0  0  0  0
    2.1727   -1.3553   -1.4006 h   0  0  0  0  0  0  0  0  0  0  0  0
    0.2325   -2.7298   -0.4071 h   0  0  0  0  0  0  0  0  0  0  0  0
   -1.3552   -2.0113   -0.7197 h   0  0  0  0  0  0  0  0  0  0  0  0
    3.7462    0.5708    1.8318 h   0  0  0  0  0  0  0  0  0  0  0  0
    3.8571    1.7948    0.4743 h   0  0  0  0  0  0  0  0  0  0  0  0
   -4.3281   -0.1582    0.4664 h   0  0  0  0  0  0  0  0  0  0  0  0
   -3.1939   -0.4249    1.8676 h   0  0  0  0  0  0  0  0  0  0  0  0
   -1.6921   -2.0847    1.5241 h   0  0  0  0  0  0  0  0  0  0  0  0
   -2.0764    1.7107   -1.5166 h   0  0  0  0  0  0  0  0  0  0  0  0
   -2.1988    0.0274   -2.0300 h   0  0  0  0  0  0  0  0  0  0  0  0
   -3.6343    0.8821   -1.4792 h   0  0  0  0  0  0  0  0  0  0  0  0
  1  2  1  0  0  0  0
  2  3  1  0  0  0  0
  3  4  1  0  0  0  0
  4  5  1  0  0  0  0
  1  6  1  0  0  0  0
  5  6  1  0  0  0  0
  1  7  1  0  0  0  0
  5  8  1  0  0  0  0
  7  8  1  0  0  0  0
  6  9  1  0  0  0  0
  1 10  1  0  0  0  0
  8 11  2  0  0  0  0
  2 12  1  0  0  0  0
 12 13  2  0  0  0  0
  2 14  1  0  0  0  0
 10 15  1  0  0  0  0
 12 16  1  0  0  0  0
  3 17  1  0  0  0  0
  3 18  1  0  0  0  0
  4 19  1  0  0  0  0
  4 20  1  0  0  0  0
  5 21  1  0  0  0  0
  6 22  1  0  0  0  0
  7 23  1  0  0  0  0
  7 24  1  0  0  0  0
  9 25  1  0  0  0  0
 10 26  1  0  0  0  0
 10 27  1  0  0  0  0
 11 28  1  0  0  0  0
 11 29  1  0  0  0  0
 13 30  1  0  0  0  0
 13 31  1  0  0  0  0
 15 32  1  0  0  0  0
 16 33  1  0  0  0  0
 16 34  1  0  0  0  0
 16 35  1  0  0  0  0
M  END
