 xtb: 6.7.1 (edcfbbe)
          08092616283D

 35 36  0     0  0            999 V2000
    0.1131   -0.6446    0.0947 c   0  0  0  0  0  0  0  0  0  0  0  0
   -0.9000    0.3704    0.6848 c   0  0  0  0  0  0  0  0  0  0  0  0
   -0.3332    1.8086    0.7009 c   0  0  0  0  0  0  0  0  0  0  0  0
    0.5534    2.1851   -0.4869 c   0  0  0  0  0  0  0  0  0  0  0  0
    1.5086    1.0371   -0.8231 c   0  0  0  0  0  0  0  0  0  0  0  0
    0.6655   -0.1598   -1.2624 c   0  0  0  0  0  0  0  0  0  0  0  0
    1.3892   -0.6252    0.9581 c   0  0  0  0  0  0  0  0  0  0  0  0
    2.1901    0.5318    0.4230 c   0  0  0  0  0  0  0  0  0  0  0  0
    1.5151   -1.1026   -1.8957 o   0  0  0  0  0  0  0  0  0  0  0  0
   -0.5084   -2.0476   -0.0024 c   0  0  0  0  0  0  0  0  0  0  0  0
    3.2983    1.0214    0.9478 c   0  0  0  0  0  0  0  0  0  0  0  0
   -2.3021    0.3023    0.1121 c   0  0  0  0  0  0  0  0  0  0  0  0
   -3.3060   -0.0922    0.8865 c   0  0  0  0  0  0  0  0  0  0  0  0
   -1.0089    0.0865    1.7388 h   0  0  0  0  0  0  0  0  0  0  0  0
   -1.0223   -2.5362    1.2159 o   0  0  0  0  0  0  0  0  0  0  0  0
   -2.5736    0.7267   -1.3003 c   0  0  0  0  0  0  0  0  0  0  0  0
   -1.1640    2.5128    0.7818 h   0  0  0  0  0  0  0  0  0  0  0  0
    0.2696    1.9154    1.6044 h   0  0  0  0  0  0  0  0  0  0  0  0
   -0.0402    2.4208   -1.3719 h   0  0  0  0  0  0  0  0  0  0  0  0
    1.1275    3.0763   -0.2272 h   0  0  0  0  0  0  0  0  0  0  0  0
    2.2195    1.3319   -1.5967 h   0  0  0  0  0  0  0  0  0  0  0  0
   -0.1213    0.1352   -1.9620 h   0  0  0  0  0  0  0  0  0  0  0  0
    1.9481   -1.5519    0.8085 h   0  0  0  0  0  0  0  0  0  0  0  0
    1.1784   -0.5358    2.0232 h   0  0  0  0  0  0  0  0  0  0  0  0
    0.9854   -1.8480   -2.2005 h   0  0  0  0  0  0  0  0  0  0  0  0
    0.2607   -2.7702   -0.2896 h   0  0  0  0  0  0  0  0  0  0  0  0
   -1.2983   -2.0494   -0.7677 h   0  0  0  0  0  0  0  0  0  0  0  0
    3.7252    0.6169    1.8503 h   0  0  0  0  0  0  0  0  0  0  0  0
    3.8261    1.8429    0.4933 h   0  0  0  0  0  0  0  0  0  0  0  0
   -4.3205   -0.1310    0.5249 h   0  0  0  0  0  0  0  0  0  0  0  0
   -3.1717   -0.3753    1.9187 h   0  0  0  0  0  0  0  0  0  0  0  0
   -1.7831   -1.9911    1.4576 h   0  0  0  0  0  0  0  0  0  0  0  0
   -2.0723    1.6632   -1.5285 h   0  0  0  0  0  0  0  0  0  0  0  0
   -2.2307   -0.0265   -2.0088 h   0  0  0  0  0  0  0  0  0  0  0  0
   -3.6427    0.8607   -1.4504 h   0  0  0  0  0  0  0  0  0  0  0  0
  1  2  1  0  0  0  0
  2  3  1  0  0  0  0
  3  4  1  0  0  0  0
  4  5  1  0  0  0  0
  1  6  1  0  0  0  0
  5  6  1  0  0  0  0
  1  7  1  0  0  0  0
  5  8  1  0  0  0  0
  7  8  1  0  0  0  0
  6  9  1  0  0  0  0
  1 10  1  0  0  0  0
  8 11  2  0  0  0  0
  2 12  1  0  0  0  0
 12 13  2  0  0  0  0
  2 14  1  0  0  0  0
 10 15  1  0  0  0  0
 12 16  1  0  0  0  0
  3 17  1  0  0  0  0
  3 18  1  0  0  0  0
  4 19  1  0  0  0  0
  4 20  1  0  0  0  0
  5 21  1  0  0  0  0
  6 22  1  0  0  0  0
  7 23  1  0  0  0  0
  7 24  1  0  0  0  0
  9 25  1  0  0  0  0
 10 26  1  0  0  0  0
 10 27  1  0  0  0  0
 11 28  1  0  0  0  0
 11 29  1  0  0  0  0
 13 30  1  0  0  0  0
 13 31  1  0  0  0  0
 15 32  1  0  0  0  0
 16 33  1  0  0  0  0
 16 34  1  0  0  0  0
 16 35  1  0  0  0  0
M  END
