 xtb: 6.7.1 (edcfbbe)
          08092617483D

 35 36  0     0  0            999 V2000
    0.1082   -0.6858   -0.2375 c   0  0  0  0  0  0  0  0  0  0  0  0
    0.6144    0.6283   -0.8979 c   0  0  0  0  0  0  0  0  0  0  0  0
   -0.4897    1.7076   -0.8605 c   0  0  0  0  0  0  0  0  0  0  0  0
   -1.2884    1.7752    0.4418 c   0  0  0  0  0  0  0  0  0  0  0  0
   -1.6949    0.3717    0.8966 c   0  0  0  0  0  0  0  0  0  0  0  0
   -0.4350   -0.4620    1.1904 c   0  0  0  0  0  0  0  0  0  0  0  0
   -1.1796   -1.1364   -0.9508 c   0  0  0  0  0  0  0  0  0  0  0  0
   -2.2901   -0.3875   -0.2605 c   0  0  0  0  0  0  0  0  0  0  0  0
    0.4613    0.0280    2.1420 o   0  0  0  0  0  0  0  0  0  0  0  0
    1.1833   -1.7858   -0.2693 c   0  0  0  0  0  0  0  0  0  0  0  0
   -3.5624   -0.3862   -0.6123 c   0  0  0  0  0  0  0  0  0  0  0  0
    1.9593    1.1531   -0.4284 c   0  0  0  0  0  0  0  0  0  0  0  0
    2.1295    2.0892    0.4967 c   0  0  0  0  0  0  0  0  0  0  0  0
    0.7672    0.3747   -1.9556 h   0  0  0  0  0  0  0  0  0  0  0  0
    0.7219   -3.0330    0.1868 o   0  0  0  0  0  0  0  0  0  0  0  0
    3.1489    0.6717   -1.2112 c   0  0  0  0  0  0  0  0  0  0  0  0
   -0.0403    2.6803   -1.0707 h   0  0  0  0  0  0  0  0  0  0  0  0
   -1.1958    1.4971   -1.6659 h   0  0  0  0  0  0  0  0  0  0  0  0
   -0.7248    2.2571    1.2425 h   0  0  0  0  0  0  0  0  0  0  0  0
   -2.1852    2.3747    0.2713 h   0  0  0  0  0  0  0  0  0  0  0  0
   -2.3640    0.4343    1.7568 h   0  0  0  0  0  0  0  0  0  0  0  0
   -0.7685   -1.4262    1.5980 h   0  0  0  0  0  0  0  0  0  0  0  0
   -1.1562   -0.9485   -2.0245 h   0  0  0  0  0  0  0  0  0  0  0  0
   -1.3066   -2.2130   -0.8084 h   0  0  0  0  0  0  0  0  0  0  0  0
    0.9210    0.7912    1.7705 h   0  0  0  0  0  0  0  0  0  0  0  0
    2.0474   -1.4630    0.3262 h   0  0  0  0  0  0  0  0  0  0  0  0
    1.4983   -1.9613   -1.3016 h   0  0  0  0  0  0  0  0  0  0  0  0
   -3.9154   -0.9419   -1.4646 h   0  0  0  0  0  0  0  0  0  0  0  0
   -4.3022    0.1687   -0.0610 h   0  0  0  0  0  0  0  0  0  0  0  0
    3.1149    2.4485    0.7432 h   0  0  0  0  0  0  0  0  0  0  0  0
    1.3269    2.5729    1.0257 h   0  0  0  0  0  0  0  0  0  0  0  0
    0.5573   -2.9706    1.1342 h   0  0  0  0  0  0  0  0  0  0  0  0
    4.0761    0.9641   -0.7251 h   0  0  0  0  0  0  0  0  0  0  0  0
    3.1477   -0.4052   -1.3470 h   0  0  0  0  0  0  0  0  0  0  0  0
    3.1265    1.1276   -2.2022 h   0  0  0  0  0  0  0  0  0  0  0  0
  1  2  1  0  0  0  0
  2  3  1  0  0  0  0
  3  4  1  0  0  0  0
  4  5  1  0  0  0  0
  1  6  1  0  0  0  0
  5  6  1  0  0  0  0
  1  7  1  0  0  0  0
  5  8  1  0  0  0  0
  7  8  1  0  0  0  0
  6  9  1  0  0  0  0
  1 10  1  0  0  0  0
  8 11  2  0  0  0  0
  2 12  1  0  0  0  0
 12 13  2  0  0  0  0
  2 14  1  0  0  0  0
 10 15  1  0  0  0  0
 12 16  1  0  0  0  0
  3 17  1  0  0  0  0
  3 18  1  0  0  0  0
  4 19  1  0  0  0  0
  4 20  1  0  0  0  0
  5 21  1  0  0  0  0
  6 22  1  0  0  0  0
  7 23  1  0  0  0  0
  7 24  1  0  0  0  0
  9 25  1  0  0  0  0
 10 26  1  0  0  0  0
 10 27  1  0  0  0  0
 11 28  1  0  0  0  0
 11 29  1  0  0  0  0
 13 30  1  0  0  0  0
 13 31  1  0  0  0  0
 15 32  1  0  0  0  0
 16 33  1  0  0  0  0
 16 34  1  0  0  0  0
 16 35  1  0  0  0  0
M  END
