 xtb: 6.7.1 (edcfbbe)
          08092617053D

 35 36  0     0  0            999 V2000
   -0.0221   -0.5521    0.2783 c   0  0  0  0  0  0  0  0  0  0  0  0
   -1.0137    0.5725    0.6827 c   0  0  0  0  0  0  0  0  0  0  0  0
   -0.3317    1.9561    0.6209 c   0  0  0  0  0  0  0  0  0  0  0  0
    0.6059    2.1703   -0.5680 c   0  0  0  0  0  0  0  0  0  0  0  0
    1.4768    0.9323   -0.7951 c   0  0  0  0  0  0  0  0  0  0  0  0
    0.5587   -0.2558   -1.1142 c   0  0  0  0  0  0  0  0  0  0  0  0
    1.2283   -0.4799    1.1763 c   0  0  0  0  0  0  0  0  0  0  0  0
    2.1283    0.5180    0.4986 c   0  0  0  0  0  0  0  0  0  0  0  0
    1.2937   -1.3227   -1.6896 o   0  0  0  0  0  0  0  0  0  0  0  0
   -0.7178   -1.9157    0.3734 c   0  0  0  0  0  0  0  0  0  0  0  0
    3.2878    0.9547    0.9554 c   0  0  0  0  0  0  0  0  0  0  0  0
   -2.3438    0.5325   -0.0461 c   0  0  0  0  0  0  0  0  0  0  0  0
   -2.5613    0.9999   -1.2664 c   0  0  0  0  0  0  0  0  0  0  0  0
   -1.2499    0.3928    1.7385 h   0  0  0  0  0  0  0  0  0  0  0  0
    0.2282   -2.9688    0.2282 o   0  0  0  0  0  0  0  0  0  0  0  0
   -3.4892   -0.0048    0.7669 c   0  0  0  0  0  0  0  0  0  0  0  0
   -1.1045    2.7271    0.6199 h   0  0  0  0  0  0  0  0  0  0  0  0
    0.2557    2.0826    1.5322 h   0  0  0  0  0  0  0  0  0  0  0  0
    0.0468    2.3845   -1.4792 h   0  0  0  0  0  0  0  0  0  0  0  0
    1.2438    3.0323   -0.3627 h   0  0  0  0  0  0  0  0  0  0  0  0
    2.2006    1.1047   -1.5935 h   0  0  0  0  0  0  0  0  0  0  0  0
   -0.2228    0.0094   -1.8341 h   0  0  0  0  0  0  0  0  0  0  0  0
    1.7162   -1.4569    1.2074 h   0  0  0  0  0  0  0  0  0  0  0  0
    0.9888   -0.1972    2.2015 h   0  0  0  0  0  0  0  0  0  0  0  0
    1.2322   -2.0832   -1.0912 h   0  0  0  0  0  0  0  0  0  0  0  0
   -1.4799   -1.9844   -0.4121 h   0  0  0  0  0  0  0  0  0  0  0  0
   -1.2019   -2.0055    1.3548 h   0  0  0  0  0  0  0  0  0  0  0  0
    3.6884    0.6220    1.8987 h   0  0  0  0  0  0  0  0  0  0  0  0
    3.8847    1.6599    0.4022 h   0  0  0  0  0  0  0  0  0  0  0  0
   -3.5441    0.9601   -1.7081 h   0  0  0  0  0  0  0  0  0  0  0  0
   -1.7999    1.4457   -1.8785 h   0  0  0  0  0  0  0  0  0  0  0  0
   -0.2467   -3.8055    0.1670 h   0  0  0  0  0  0  0  0  0  0  0  0
   -4.3968   -0.0622    0.1715 h   0  0  0  0  0  0  0  0  0  0  0  0
   -3.2671   -0.9934    1.1618 h   0  0  0  0  0  0  0  0  0  0  0  0
   -3.6751    0.6557    1.6144 h   0  0  0  0  0  0  0  0  0  0  0  0
  1  2  1  0  0  0  0
  2  3  1  0  0  0  0
  3  4  1  0  0  0  0
  4  5  1  0  0  0  0
  1  6  1  0  0  0  0
  5  6  1  0  0  0  0
  1  7  1  0  0  0  0
  5  8  1  0  0  0  0
  7  8  1  0  0  0  0
  6  9  1  0  0  0  0
  1 10  1  0  0  0  0
  8 11  2  0  0  0  0
  2 12  1  0  0  0  0
 12 13  2  0  0  0  0
  2 14  1  0  0  0  0
 10 15  1  0  0  0  0
 12 16  1  0  0  0  0
  3 17  1  0  0  0  0
  3 18  1  0  0  0  0
  4 19  1  0  0  0  0
  4 20  1  0  0  0  0
  5 21  1  0  0  0  0
  6 22  1  0  0  0  0
  7 23  1  0  0  0  0
  7 24  1  0  0  0  0
  9 25  1  0  0  0  0
 10 26  1  0  0  0  0
 10 27  1  0  0  0  0
 11 28  1  0  0  0  0
 11 29  1  0  0  0  0
 13 30  1  0  0  0  0
 13 31  1  0  0  0  0
 15 32  1  0  0  0  0
 16 33  1  0  0  0  0
 16 34  1  0  0  0  0
 16 35  1  0  0  0  0
M  END
