 xtb: 6.7.1 (edcfbbe)
          08092615283D

 35 36  0     0  0            999 V2000
   -0.0416   -0.5604    0.2849 c   0  0  0  0  0  0  0  0  0  0  0  0
   -1.0083    0.5696    0.7208 c   0  0  0  0  0  0  0  0  0  0  0  0
   -0.3359    1.9545    0.6000 c   0  0  0  0  0  0  0  0  0  0  0  0
    0.5924    2.1404   -0.6024 c   0  0  0  0  0  0  0  0  0  0  0  0
    1.4688    0.9011   -0.8055 c   0  0  0  0  0  0  0  0  0  0  0  0
    0.5322   -0.2774   -1.1158 c   0  0  0  0  0  0  0  0  0  0  0  0
    1.2193   -0.4992    1.1708 c   0  0  0  0  0  0  0  0  0  0  0  0
    2.1146    0.5026    0.4939 c   0  0  0  0  0  0  0  0  0  0  0  0
    1.1931   -1.3683   -1.7066 o   0  0  0  0  0  0  0  0  0  0  0  0
   -0.7476   -1.9181    0.3839 c   0  0  0  0  0  0  0  0  0  0  0  0
    3.2651    0.9552    0.9568 c   0  0  0  0  0  0  0  0  0  0  0  0
   -2.3876    0.5069    0.0975 c   0  0  0  0  0  0  0  0  0  0  0  0
   -3.4111    0.0762    0.8229 c   0  0  0  0  0  0  0  0  0  0  0  0
   -1.1804    0.4060    1.7924 h   0  0  0  0  0  0  0  0  0  0  0  0
    0.2027   -2.9678    0.3338 o   0  0  0  0  0  0  0  0  0  0  0  0
   -2.6164    0.9649   -1.3118 c   0  0  0  0  0  0  0  0  0  0  0  0
   -1.1108    2.7241    0.5940 h   0  0  0  0  0  0  0  0  0  0  0  0
    0.2619    2.1103    1.5002 h   0  0  0  0  0  0  0  0  0  0  0  0
    0.0267    2.3227   -1.5178 h   0  0  0  0  0  0  0  0  0  0  0  0
    1.2227    3.0142   -0.4240 h   0  0  0  0  0  0  0  0  0  0  0  0
    2.1938    1.0666   -1.6039 h   0  0  0  0  0  0  0  0  0  0  0  0
   -0.2351    0.0216   -1.8334 h   0  0  0  0  0  0  0  0  0  0  0  0
    1.7029   -1.4781    1.1970 h   0  0  0  0  0  0  0  0  0  0  0  0
    0.9892   -0.2232    2.2004 h   0  0  0  0  0  0  0  0  0  0  0  0
    1.4002   -2.0124   -1.0176 h   0  0  0  0  0  0  0  0  0  0  0  0
   -1.4640   -2.0111   -0.4420 h   0  0  0  0  0  0  0  0  0  0  0  0
   -1.3065   -1.9687    1.3290 h   0  0  0  0  0  0  0  0  0  0  0  0
    3.6626    0.6331    1.9048 h   0  0  0  0  0  0  0  0  0  0  0  0
    3.8575    1.6644    0.4043 h   0  0  0  0  0  0  0  0  0  0  0  0
   -4.4108    0.0305    0.4246 h   0  0  0  0  0  0  0  0  0  0  0  0
   -3.2992   -0.2513    1.8430 h   0  0  0  0  0  0  0  0  0  0  0  0
   -0.2642   -3.8045    0.2546 h   0  0  0  0  0  0  0  0  0  0  0  0
   -2.1073    1.9041   -1.5095 h   0  0  0  0  0  0  0  0  0  0  0  0
   -2.2561    0.2249   -2.0251 h   0  0  0  0  0  0  0  0  0  0  0  0
   -3.6805    1.1051   -1.4888 h   0  0  0  0  0  0  0  0  0  0  0  0
  1  2  1  0  0  0  0
  2  3  1  0  0  0  0
  3  4  1  0  0  0  0
  4  5  1  0  0  0  0
  1  6  1  0  0  0  0
  5  6  1  0  0  0  0
  1  7  1  0  0  0  0
  5  8  1  0  0  0  0
  7  8  1  0  0  0  0
  6  9  1  0  0  0  0
  1 10  1  0  0  0  0
  8 11  2  0  0  0  0
  2 12  1  0  0  0  0
 12 13  2  0  0  0  0
  2 14  1  0  0  0  0
 10 15  1  0  0  0  0
 12 16  1  0  0  0  0
  3 17  1  0  0  0  0
  3 18  1  0  0  0  0
  4 19  1  0  0  0  0
  4 20  1  0  0  0  0
  5 21  1  0  0  0  0
  6 22  1  0  0  0  0
  7 23  1  0  0  0  0
  7 24  1  0  0  0  0
  9 25  1  0  0  0  0
 10 26  1  0  0  0  0
 10 27  1  0  0  0  0
 11 28  1  0  0  0  0
 11 29  1  0  0  0  0
 13 30  1  0  0  0  0
 13 31  1  0  0  0  0
 15 32  1  0  0  0  0
 16 33  1  0  0  0  0
 16 34  1  0  0  0  0
 16 35  1  0  0  0  0
M  END
