 xtb: 6.7.1 (edcfbbe)
          08092616283D

 35 36  0     0  0            999 V2000
   -0.0374   -0.5658    0.2832 c   0  0  0  0  0  0  0  0  0  0  0  0
   -1.0088    0.5576    0.7272 c   0  0  0  0  0  0  0  0  0  0  0  0
   -0.3522    1.9512    0.6135 c   0  0  0  0  0  0  0  0  0  0  0  0
    0.5680    2.1499   -0.5918 c   0  0  0  0  0  0  0  0  0  0  0  0
    1.4555    0.9192   -0.8016 c   0  0  0  0  0  0  0  0  0  0  0  0
    0.5419   -0.2674   -1.1121 c   0  0  0  0  0  0  0  0  0  0  0  0
    1.2277   -0.5069    1.1611 c   0  0  0  0  0  0  0  0  0  0  0  0
    2.1115    0.5102    0.4935 c   0  0  0  0  0  0  0  0  0  0  0  0
    1.2592   -1.3965   -1.5991 o   0  0  0  0  0  0  0  0  0  0  0  0
   -0.7475   -1.9259    0.3739 c   0  0  0  0  0  0  0  0  0  0  0  0
    3.2648    0.9659    0.9479 c   0  0  0  0  0  0  0  0  0  0  0  0
   -2.3952    0.4989    0.1175 c   0  0  0  0  0  0  0  0  0  0  0  0
   -3.4227    0.1341    0.8731 c   0  0  0  0  0  0  0  0  0  0  0  0
   -1.1705    0.3822    1.7972 h   0  0  0  0  0  0  0  0  0  0  0  0
    0.1174   -3.0331    0.2722 o   0  0  0  0  0  0  0  0  0  0  0  0
   -2.6260    0.8956   -1.3110 c   0  0  0  0  0  0  0  0  0  0  0  0
   -1.1355    2.7117    0.6103 h   0  0  0  0  0  0  0  0  0  0  0  0
    0.2463    2.1097    1.5123 h   0  0  0  0  0  0  0  0  0  0  0  0
   -0.0031    2.3288   -1.5045 h   0  0  0  0  0  0  0  0  0  0  0  0
    1.1935    3.0271   -0.4154 h   0  0  0  0  0  0  0  0  0  0  0  0
    2.1822    1.1097   -1.5970 h   0  0  0  0  0  0  0  0  0  0  0  0
   -0.2300   -0.0089   -1.8436 h   0  0  0  0  0  0  0  0  0  0  0  0
    1.7147   -1.4854    1.1588 h   0  0  0  0  0  0  0  0  0  0  0  0
    1.0052   -0.2522    2.1968 h   0  0  0  0  0  0  0  0  0  0  0  0
    1.8268   -1.1075   -2.3238 h   0  0  0  0  0  0  0  0  0  0  0  0
   -1.5214   -1.9814   -0.4052 h   0  0  0  0  0  0  0  0  0  0  0  0
   -1.2361   -2.0210    1.3471 h   0  0  0  0  0  0  0  0  0  0  0  0
    3.6724    0.6370    1.8890 h   0  0  0  0  0  0  0  0  0  0  0  0
    3.8472    1.6868    0.3986 h   0  0  0  0  0  0  0  0  0  0  0  0
   -4.4281    0.0993    0.4872 h   0  0  0  0  0  0  0  0  0  0  0  0
   -3.3072   -0.1545    1.9043 h   0  0  0  0  0  0  0  0  0  0  0  0
    0.6669   -2.8838   -0.5128 h   0  0  0  0  0  0  0  0  0  0  0  0
   -2.0887    1.8058   -1.5613 h   0  0  0  0  0  0  0  0  0  0  0  0
   -2.3028    0.1056   -1.9880 h   0  0  0  0  0  0  0  0  0  0  0  0
   -3.6870    1.0625   -1.4831 h   0  0  0  0  0  0  0  0  0  0  0  0
  1  2  1  0  0  0  0
  2  3  1  0  0  0  0
  3  4  1  0  0  0  0
  4  5  1  0  0  0  0
  1  6  1  0  0  0  0
  5  6  1  0  0  0  0
  1  7  1  0  0  0  0
  5  8  1  0  0  0  0
  7  8  1  0  0  0  0
  6  9  1  0  0  0  0
  1 10  1  0  0  0  0
  8 11  2  0  0  0  0
  2 12  1  0  0  0  0
 12 13  2  0  0  0  0
  2 14  1  0  0  0  0
 10 15  1  0  0  0  0
 12 16  1  0  0  0  0
  3 17  1  0  0  0  0
  3 18  1  0  0  0  0
  4 19  1  0  0  0  0
  4 20  1  0  0  0  0
  5 21  1  0  0  0  0
  6 22  1  0  0  0  0
  7 23  1  0  0  0  0
  7 24  1  0  0  0  0
  9 25  1  0  0  0  0
 10 26  1  0  0  0  0
 10 27  1  0  0  0  0
 11 28  1  0  0  0  0
 11 29  1  0  0  0  0
 13 30  1  0  0  0  0
 13 31  1  0  0  0  0
 15 32  1  0  0  0  0
 16 33  1  0  0  0  0
 16 34  1  0  0  0  0
 16 35  1  0  0  0  0
M  END
