 xtb: 6.7.1 (edcfbbe)
          08092617053D

 35 36  0     0  0            999 V2000
   -0.0216   -0.5650    0.2989 c   0  0  0  0  0  0  0  0  0  0  0  0
   -0.9839    0.5774    0.7220 c   0  0  0  0  0  0  0  0  0  0  0  0
   -0.3361    1.9691    0.5514 c   0  0  0  0  0  0  0  0  0  0  0  0
    0.5635    2.1266   -0.6750 c   0  0  0  0  0  0  0  0  0  0  0  0
    1.4592    0.8964   -0.8344 c   0  0  0  0  0  0  0  0  0  0  0  0
    0.5648   -0.3162   -1.1035 c   0  0  0  0  0  0  0  0  0  0  0  0
    1.2491   -0.4851    1.1683 c   0  0  0  0  0  0  0  0  0  0  0  0
    2.1077    0.5459    0.4804 c   0  0  0  0  0  0  0  0  0  0  0  0
    1.3646   -1.3849   -1.5805 o   0  0  0  0  0  0  0  0  0  0  0  0
   -0.7730   -1.9006    0.4276 c   0  0  0  0  0  0  0  0  0  0  0  0
    3.2357    1.0499    0.9459 c   0  0  0  0  0  0  0  0  0  0  0  0
   -2.3800    0.5062    0.1348 c   0  0  0  0  0  0  0  0  0  0  0  0
   -3.4014    0.1926    0.9213 c   0  0  0  0  0  0  0  0  0  0  0  0
   -1.1310    0.4395    1.8003 h   0  0  0  0  0  0  0  0  0  0  0  0
   -0.0029   -3.0525    0.1324 o   0  0  0  0  0  0  0  0  0  0  0  0
   -2.6227    0.8399   -1.3066 c   0  0  0  0  0  0  0  0  0  0  0  0
   -1.1244    2.7242    0.5348 h   0  0  0  0  0  0  0  0  0  0  0  0
    0.2761    2.1624    1.4342 h   0  0  0  0  0  0  0  0  0  0  0  0
   -0.0199    2.2561   -1.5875 h   0  0  0  0  0  0  0  0  0  0  0  0
    1.1814    3.0172   -0.5462 h   0  0  0  0  0  0  0  0  0  0  0  0
    2.1877    1.0401   -1.6339 h   0  0  0  0  0  0  0  0  0  0  0  0
   -0.2054   -0.0998   -1.8516 h   0  0  0  0  0  0  0  0  0  0  0  0
    1.7845   -1.4385    1.1579 h   0  0  0  0  0  0  0  0  0  0  0  0
    1.0365   -0.2284    2.2063 h   0  0  0  0  0  0  0  0  0  0  0  0
    0.9309   -2.2149   -1.3210 h   0  0  0  0  0  0  0  0  0  0  0  0
   -1.5990   -1.9238   -0.2870 h   0  0  0  0  0  0  0  0  0  0  0  0
   -1.1953   -1.9816    1.4368 h   0  0  0  0  0  0  0  0  0  0  0  0
    3.6364    0.7603    1.9034 h   0  0  0  0  0  0  0  0  0  0  0  0
    3.8061    1.7714    0.3861 h   0  0  0  0  0  0  0  0  0  0  0  0
   -4.4129    0.1565    0.5520 h   0  0  0  0  0  0  0  0  0  0  0  0
   -3.2761   -0.0458    1.9644 h   0  0  0  0  0  0  0  0  0  0  0  0
    0.6725   -3.1583    0.8152 h   0  0  0  0  0  0  0  0  0  0  0  0
   -2.1165    1.7592   -1.5876 h   0  0  0  0  0  0  0  0  0  0  0  0
   -2.2659    0.0422   -1.9566 h   0  0  0  0  0  0  0  0  0  0  0  0
   -3.6884    0.9631   -1.4859 h   0  0  0  0  0  0  0  0  0  0  0  0
  1  2  1  0  0  0  0
  2  3  1  0  0  0  0
  3  4  1  0  0  0  0
  4  5  1  0  0  0  0
  1  6  1  0  0  0  0
  5  6  1  0  0  0  0
  1  7  1  0  0  0  0
  5  8  1  0  0  0  0
  7  8  1  0  0  0  0
  6  9  1  0  0  0  0
  1 10  1  0  0  0  0
  8 11  2  0  0  0  0
  2 12  1  0  0  0  0
 12 13  2  0  0  0  0
  2 14  1  0  0  0  0
 10 15  1  0  0  0  0
 12 16  1  0  0  0  0
  3 17  1  0  0  0  0
  3 18  1  0  0  0  0
  4 19  1  0  0  0  0
  4 20  1  0  0  0  0
  5 21  1  0  0  0  0
  6 22  1  0  0  0  0
  7 23  1  0  0  0  0
  7 24  1  0  0  0  0
  9 25  1  0  0  0  0
 10 26  1  0  0  0  0
 10 27  1  0  0  0  0
 11 28  1  0  0  0  0
 11 29  1  0  0  0  0
 13 30  1  0  0  0  0
 13 31  1  0  0  0  0
 15 32  1  0  0  0  0
 16 33  1  0  0  0  0
 16 34  1  0  0  0  0
 16 35  1  0  0  0  0
M  END
