 xtb: 6.7.1 (edcfbbe)
          08092622183D

 50 55  0     0  0            999 V2000
   -0.2847   -0.5198   -2.8026 c   0  0  0  0  0  0  0  0  0  0  0  0
    0.7866    0.5269   -2.4834 c   0  0  0  0  0  0  0  0  0  0  0  0
   -2.5794    3.0209    0.6843 c   0  0  0  0  0  0  0  0  0  0  0  0
   -3.6188    2.5566   -0.1049 c   0  0  0  0  0  0  0  0  0  0  0  0
   -3.4911    1.3459   -0.7493 c   0  0  0  0  0  0  0  0  0  0  0  0
   -2.3329    0.5750   -0.6120 c   0  0  0  0  0  0  0  0  0  0  0  0
   -1.2916    1.0180    0.2126 c   0  0  0  0  0  0  0  0  0  0  0  0
   -1.4407    2.2505    0.8377 c   0  0  0  0  0  0  0  0  0  0  0  0
   -2.2481   -0.6339   -1.2521 n   0  0  0  0  0  0  0  0  0  0  0  0
   -0.9619   -1.1843   -1.5743 c   0  0  0  0  0  0  0  0  0  0  0  0
   -0.0382   -1.1725   -0.3308 c   0  0  0  0  0  0  0  0  0  0  0  0
   -0.0503    0.1801    0.4509 c   0  0  0  0  0  0  0  0  0  0  0  0
    1.3890   -1.3230   -0.8846 c   0  0  0  0  0  0  0  0  0  0  0  0
    1.6898    0.1292   -1.2929 c   0  0  0  0  0  0  0  0  0  0  0  0
    1.2255    0.8641   -0.0524 c   0  0  0  0  0  0  0  0  0  0  0  0
    3.1283    0.4933   -1.5217 c   0  0  0  0  0  0  0  0  0  0  0  0
    3.8263    1.2429   -0.6779 c   0  0  0  0  0  0  0  0  0  0  0  0
    3.3173    1.7061    0.6637 c   0  0  0  0  0  0  0  0  0  0  0  0
    2.2479    0.7639    1.0516 n   0  0  0  0  0  0  0  0  0  0  0  0
    1.4016    1.0451    2.2293 c   0  0  0  0  0  0  0  0  0  0  0  0
    0.2378    0.0770    1.9770 c   0  0  0  0  0  0  0  0  0  0  0  0
    2.8353   -0.4340    1.2638 o   0  0  0  0  0  0  0  0  0  0  0  0
    1.0786    1.9305   -0.2286 h   0  0  0  0  0  0  0  0  0  0  0  0
   -0.4826   -2.3490    0.5094 c   0  0  0  0  0  0  0  0  0  0  0  0
    0.0313   -3.4449    0.4898 o   0  0  0  0  0  0  0  0  0  0  0  0
   -1.5691   -2.0652    1.2229 o   0  0  0  0  0  0  0  0  0  0  0  0
   -2.1305   -3.1227    1.9991 c   0  0  0  0  0  0  0  0  0  0  0  0
    0.1643   -1.3071   -3.4086 h   0  0  0  0  0  0  0  0  0  0  0  0
   -1.0626   -0.0524   -3.4102 h   0  0  0  0  0  0  0  0  0  0  0  0
    1.3996    0.6690   -3.3754 h   0  0  0  0  0  0  0  0  0  0  0  0
    0.3092    1.4836   -2.2631 h   0  0  0  0  0  0  0  0  0  0  0  0
   -2.6562    3.9743    1.1850 h   0  0  0  0  0  0  0  0  0  0  0  0
   -4.5190    3.1415   -0.2240 h   0  0  0  0  0  0  0  0  0  0  0  0
   -4.2898    0.9744   -1.3760 h   0  0  0  0  0  0  0  0  0  0  0  0
   -0.6554    2.6300    1.4707 h   0  0  0  0  0  0  0  0  0  0  0  0
   -2.9764   -0.8167   -1.9266 h   0  0  0  0  0  0  0  0  0  0  0  0
   -1.1317   -2.2390   -1.8322 h   0  0  0  0  0  0  0  0  0  0  0  0
    2.0776   -1.6271   -0.0964 h   0  0  0  0  0  0  0  0  0  0  0  0
    1.4457   -2.0392   -1.6988 h   0  0  0  0  0  0  0  0  0  0  0  0
    3.5796    0.1378   -2.4363 h   0  0  0  0  0  0  0  0  0  0  0  0
    4.8513    1.5040   -0.8952 h   0  0  0  0  0  0  0  0  0  0  0  0
    2.9478    2.7355    0.6357 h   0  0  0  0  0  0  0  0  0  0  0  0
    4.1142    1.6218    1.4055 h   0  0  0  0  0  0  0  0  0  0  0  0
    1.9612    0.7948    3.1296 h   0  0  0  0  0  0  0  0  0  0  0  0
    1.1008    2.0918    2.2463 h   0  0  0  0  0  0  0  0  0  0  0  0
   -0.6383    0.3097    2.5773 h   0  0  0  0  0  0  0  0  0  0  0  0
    0.5919   -0.9242    2.2231 h   0  0  0  0  0  0  0  0  0  0  0  0
   -2.9955   -2.6950    2.4978 h   0  0  0  0  0  0  0  0  0  0  0  0
   -2.4235   -3.9505    1.3511 h   0  0  0  0  0  0  0  0  0  0  0  0
   -1.4010   -3.4854    2.7254 h   0  0  0  0  0  0  0  0  0  0  0  0
  1  2  1  0  0  0  0
  3  4  4  0  0  0  0
  4  5  4  0  0  0  0
  5  6  4  0  0  0  0
  6  7  4  0  0  0  0
  3  8  4  0  0  0  0
  7  8  4  0  0  0  0
  6  9  1  0  0  0  0
  1 10  1  0  0  0  0
  9 10  1  0  0  0  0
 10 11  1  0  0  0  0
  7 12  1  0  0  0  0
 11 12  1  0  0  0  0
 11 13  1  0  0  0  0
  2 14  1  0  0  0  0
 13 14  1  0  0  0  0
 12 15  1  0  0  0  0
 14 15  1  0  0  0  0
 14 16  1  0  0  0  0
 16 17  2  0  0  0  0
 17 18  1  0  0  0  0
 15 19  1  0  0  0  0
 18 19  1  0  0  0  0
 19 20  1  0  0  0  0
 12 21  1  0  0  0  0
 20 21  1  0  0  0  0
 19 22  1  0  0  0  0
 15 23  1  0  0  0  0
 11 24  1  0  0  0  0
 24 25  2  0  0  0  0
 24 26  1  0  0  0  0
 26 27  1  0  0  0  0
  1 28  1  0  0  0  0
  1 29  1  0  0  0  0
  2 30  1  0  0  0  0
  2 31  1  0  0  0  0
  3 32  1  0  0  0  0
  4 33  1  0  0  0  0
  5 34  1  0  0  0  0
  8 35  1  0  0  0  0
  9 36  1  0  0  0  0
 10 37  1  0  0  0  0
 13 38  1  0  0  0  0
 13 39  1  0  0  0  0
 16 40  1  0  0  0  0
 17 41  1  0  0  0  0
 18 42  1  0  0  0  0
 18 43  1  0  0  0  0
 20 44  1  0  0  0  0
 20 45  1  0  0  0  0
 21 46  1  0  0  0  0
 21 47  1  0  0  0  0
 27 48  1  0  0  0  0
 27 49  1  0  0  0  0
 27 50  1  0  0  0  0
M  END
