 xtb: 6.7.1 (edcfbbe)
          08092616283D

 35 36  0     0  0            999 V2000
    0.0883   -0.6183    0.1047 c   0  0  0  0  0  0  0  0  0  0  0  0
   -0.9440    0.4017    0.6501 c   0  0  0  0  0  0  0  0  0  0  0  0
   -0.3308    1.8140    0.7389 c   0  0  0  0  0  0  0  0  0  0  0  0
    0.5732    2.2068   -0.4302 c   0  0  0  0  0  0  0  0  0  0  0  0
    1.4980    1.0483   -0.8149 c   0  0  0  0  0  0  0  0  0  0  0  0
    0.6377   -0.1400   -1.2541 c   0  0  0  0  0  0  0  0  0  0  0  0
    1.3487   -0.5881    0.9911 c   0  0  0  0  0  0  0  0  0  0  0  0
    2.1969    0.5143    0.4110 c   0  0  0  0  0  0  0  0  0  0  0  0
    1.3873   -1.1248   -1.9392 o   0  0  0  0  0  0  0  0  0  0  0  0
   -0.5103   -2.0218    0.0004 c   0  0  0  0  0  0  0  0  0  0  0  0
    3.3572    0.9339    0.8827 c   0  0  0  0  0  0  0  0  0  0  0  0
   -2.2792    0.3665   -0.0655 c   0  0  0  0  0  0  0  0  0  0  0  0
   -2.5443    0.9502   -1.2248 c   0  0  0  0  0  0  0  0  0  0  0  0
   -1.1508    0.0805    1.6771 h   0  0  0  0  0  0  0  0  0  0  0  0
   -0.8853   -2.4831    1.2877 o   0  0  0  0  0  0  0  0  0  0  0  0
   -3.3644   -0.3441    0.6930 c   0  0  0  0  0  0  0  0  0  0  0  0
   -1.1393    2.5413    0.8333 h   0  0  0  0  0  0  0  0  0  0  0  0
    0.2640    1.8676    1.6529 h   0  0  0  0  0  0  0  0  0  0  0  0
   -0.0143    2.4947   -1.3023 h   0  0  0  0  0  0  0  0  0  0  0  0
    1.1740    3.0706   -0.1377 h   0  0  0  0  0  0  0  0  0  0  0  0
    2.1948    1.3611   -1.5963 h   0  0  0  0  0  0  0  0  0  0  0  0
   -0.1568    0.1282   -1.9500 h   0  0  0  0  0  0  0  0  0  0  0  0
    1.8735   -1.5458    0.9390 h   0  0  0  0  0  0  0  0  0  0  0  0
    1.1069   -0.4183    2.0398 h   0  0  0  0  0  0  0  0  0  0  0  0
    2.1797   -1.3091   -1.4167 h   0  0  0  0  0  0  0  0  0  0  0  0
    0.2366   -2.6949   -0.4401 h   0  0  0  0  0  0  0  0  0  0  0  0
   -1.3797   -1.9951   -0.6698 h   0  0  0  0  0  0  0  0  0  0  0  0
    3.7937    0.5125    1.7731 h   0  0  0  0  0  0  0  0  0  0  0  0
    3.9138    1.7204    0.4014 h   0  0  0  0  0  0  0  0  0  0  0  0
   -3.5292    0.8941   -1.6605 h   0  0  0  0  0  0  0  0  0  0  0  0
   -1.8233    1.5130   -1.7881 h   0  0  0  0  0  0  0  0  0  0  0  0
   -1.1763   -3.3990    1.2097 h   0  0  0  0  0  0  0  0  0  0  0  0
   -2.9976   -1.2818    1.1036 h   0  0  0  0  0  0  0  0  0  0  0  0
   -3.6830    0.2761    1.5320 h   0  0  0  0  0  0  0  0  0  0  0  0
   -4.2285   -0.5379    0.0623 h   0  0  0  0  0  0  0  0  0  0  0  0
  1  2  1  0  0  0  0
  2  3  1  0  0  0  0
  3  4  1  0  0  0  0
  4  5  1  0  0  0  0
  1  6  1  0  0  0  0
  5  6  1  0  0  0  0
  1  7  1  0  0  0  0
  5  8  1  0  0  0  0
  7  8  1  0  0  0  0
  6  9  1  0  0  0  0
  1 10  1  0  0  0  0
  8 11  2  0  0  0  0
  2 12  1  0  0  0  0
 12 13  2  0  0  0  0
  2 14  1  0  0  0  0
 10 15  1  0  0  0  0
 12 16  1  0  0  0  0
  3 17  1  0  0  0  0
  3 18  1  0  0  0  0
  4 19  1  0  0  0  0
  4 20  1  0  0  0  0
  5 21  1  0  0  0  0
  6 22  1  0  0  0  0
  7 23  1  0  0  0  0
  7 24  1  0  0  0  0
  9 25  1  0  0  0  0
 10 26  1  0  0  0  0
 10 27  1  0  0  0  0
 11 28  1  0  0  0  0
 11 29  1  0  0  0  0
 13 30  1  0  0  0  0
 13 31  1  0  0  0  0
 15 32  1  0  0  0  0
 16 33  1  0  0  0  0
 16 34  1  0  0  0  0
 16 35  1  0  0  0  0
M  END
