 xtb: 6.7.1 (edcfbbe)
          08092600333D

 42 44  0     0  0            999 V2000
    0.9617    1.5393   -0.0047 c   0  0  0  0  0  0  0  0  0  0  0  0
    2.2482    1.0279    0.6591 c   0  0  0  0  0  0  0  0  0  0  0  0
    2.9893   -0.0556   -0.1330 c   0  0  0  0  0  0  0  0  0  0  0  0
    2.5495   -1.4809    0.2053 c   0  0  0  0  0  0  0  0  0  0  0  0
    1.1712   -1.8942   -0.3171 c   0  0  0  0  0  0  0  0  0  0  0  0
    0.0915   -0.9103    0.1347 c   0  0  0  0  0  0  0  0  0  0  0  0
    0.1081    0.4251   -0.6231 c   0  0  0  0  0  0  0  0  0  0  0  0
   -0.0014    2.1805    1.0074 c   0  0  0  0  0  0  0  0  0  0  0  0
   -1.3675    2.1503    0.3212 c   0  0  0  0  0  0  0  0  0  0  0  0
   -1.3632    0.8874   -0.5557 c   0  0  0  0  0  0  0  0  0  0  0  0
   -1.1952   -1.4381   -0.1231 o   0  0  0  0  0  0  0  0  0  0  0  0
   -2.1387   -0.3697   -0.0608 c   0  0  0  0  0  0  0  0  0  0  0  0
    0.4053    0.2269   -1.6551 h   0  0  0  0  0  0  0  0  0  0  0  0
   -1.7362    1.1362   -1.5511 h   0  0  0  0  0  0  0  0  0  0  0  0
    0.1971   -0.7392    1.2173 h   0  0  0  0  0  0  0  0  0  0  0  0
    0.8382   -3.3044    0.1674 c   0  0  0  0  0  0  0  0  0  0  0  0
   -3.2836   -0.7237   -1.0115 c   0  0  0  0  0  0  0  0  0  0  0  0
   -2.6863   -0.2669    1.3681 c   0  0  0  0  0  0  0  0  0  0  0  0
    1.3274    2.5568   -1.0902 c   0  0  0  0  0  0  0  0  0  0  0  0
    2.9115    1.8850    0.7984 h   0  0  0  0  0  0  0  0  0  0  0  0
    2.0260    0.6374    1.6542 h   0  0  0  0  0  0  0  0  0  0  0  0
    2.8800    0.1171   -1.2041 h   0  0  0  0  0  0  0  0  0  0  0  0
    4.0547    0.0208    0.0991 h   0  0  0  0  0  0  0  0  0  0  0  0
    2.5645   -1.6033    1.2917 h   0  0  0  0  0  0  0  0  0  0  0  0
    3.2840   -2.1764   -0.2086 h   0  0  0  0  0  0  0  0  0  0  0  0
    1.1858   -1.9014   -1.4125 h   0  0  0  0  0  0  0  0  0  0  0  0
    0.3008    3.1914    1.2794 h   0  0  0  0  0  0  0  0  0  0  0  0
   -0.0279    1.5821    1.9198 h   0  0  0  0  0  0  0  0  0  0  0  0
   -2.1836    2.1681    1.0386 h   0  0  0  0  0  0  0  0  0  0  0  0
   -1.4780    3.0289   -0.3158 h   0  0  0  0  0  0  0  0  0  0  0  0
    0.8175   -3.3352    1.2547 h   0  0  0  0  0  0  0  0  0  0  0  0
   -0.1388   -3.5993   -0.2024 h   0  0  0  0  0  0  0  0  0  0  0  0
    1.5834   -4.0134   -0.1867 h   0  0  0  0  0  0  0  0  0  0  0  0
   -2.8950   -0.8925   -2.0125 h   0  0  0  0  0  0  0  0  0  0  0  0
   -4.0128    0.0817   -1.0392 h   0  0  0  0  0  0  0  0  0  0  0  0
   -3.7705   -1.6355   -0.6765 h   0  0  0  0  0  0  0  0  0  0  0  0
   -3.5200    0.4281    1.4165 h   0  0  0  0  0  0  0  0  0  0  0  0
   -3.0382   -1.2514    1.6681 h   0  0  0  0  0  0  0  0  0  0  0  0
   -1.9154    0.0453    2.0666 h   0  0  0  0  0  0  0  0  0  0  0  0
    2.0285    2.1239   -1.8002 h   0  0  0  0  0  0  0  0  0  0  0  0
    0.4451    2.8754   -1.6381 h   0  0  0  0  0  0  0  0  0  0  0  0
    1.7930    3.4346   -0.6464 h   0  0  0  0  0  0  0  0  0  0  0  0
  1  2  1  0  0  0  0
  2  3  1  0  0  0  0
  3  4  1  0  0  0  0
  4  5  1  0  0  0  0
  5  6  1  0  0  0  0
  1  7  1  0  0  0  0
  6  7  1  0  0  0  0
  1  8  1  0  0  0  0
  8  9  1  0  0  0  0
  7 10  1  0  0  0  0
  9 10  1  0  0  0  0
  6 11  1  0  0  0  0
 10 12  1  0  0  0  0
 11 12  1  0  0  0  0
  7 13  1  0  0  0  0
 10 14  1  0  0  0  0
  6 15  1  0  0  0  0
  5 16  1  0  0  0  0
 12 17  1  0  0  0  0
 12 18  1  0  0  0  0
  1 19  1  0  0  0  0
  2 20  1  0  0  0  0
  2 21  1  0  0  0  0
  3 22  1  0  0  0  0
  3 23  1  0  0  0  0
  4 24  1  0  0  0  0
  4 25  1  0  0  0  0
  5 26  1  0  0  0  0
  8 27  1  0  0  0  0
  8 28  1  0  0  0  0
  9 29  1  0  0  0  0
  9 30  1  0  0  0  0
 16 31  1  0  0  0  0
 16 32  1  0  0  0  0
 16 33  1  0  0  0  0
 17 34  1  0  0  0  0
 17 35  1  0  0  0  0
 17 36  1  0  0  0  0
 18 37  1  0  0  0  0
 18 38  1  0  0  0  0
 18 39  1  0  0  0  0
 19 40  1  0  0  0  0
 19 41  1  0  0  0  0
 19 42  1  0  0  0  0
M  END
