 xtb: 6.7.1 (edcfbbe)
          08092618203D

 35 36  0     0  0            999 V2000
    0.0969   -0.7007   -0.2950 c   0  0  0  0  0  0  0  0  0  0  0  0
    0.5965    0.6200   -0.9498 c   0  0  0  0  0  0  0  0  0  0  0  0
   -0.4913    1.7070   -0.8549 c   0  0  0  0  0  0  0  0  0  0  0  0
   -1.2183    1.7539    0.4879 c   0  0  0  0  0  0  0  0  0  0  0  0
   -1.6651    0.3475    0.9030 c   0  0  0  0  0  0  0  0  0  0  0  0
   -0.4259   -0.5173    1.1471 c   0  0  0  0  0  0  0  0  0  0  0  0
   -1.2140   -1.1177   -0.9945 c   0  0  0  0  0  0  0  0  0  0  0  0
   -2.2985   -0.3633   -0.2639 c   0  0  0  0  0  0  0  0  0  0  0  0
    0.4573    0.0363    2.0916 o   0  0  0  0  0  0  0  0  0  0  0  0
    1.1817   -1.7864   -0.3811 c   0  0  0  0  0  0  0  0  0  0  0  0
   -3.5772   -0.3337   -0.5921 c   0  0  0  0  0  0  0  0  0  0  0  0
    1.9718    1.0985   -0.5184 c   0  0  0  0  0  0  0  0  0  0  0  0
    3.0447    0.6862   -1.1822 c   0  0  0  0  0  0  0  0  0  0  0  0
    0.7082    0.3759   -2.0145 h   0  0  0  0  0  0  0  0  0  0  0  0
    0.8664   -2.9717    0.3204 o   0  0  0  0  0  0  0  0  0  0  0  0
    2.1151    2.0895    0.5961 c   0  0  0  0  0  0  0  0  0  0  0  0
   -0.0488    2.6795   -1.0741 h   0  0  0  0  0  0  0  0  0  0  0  0
   -1.2352    1.5150   -1.6311 h   0  0  0  0  0  0  0  0  0  0  0  0
   -0.5778    2.1536    1.2720 h   0  0  0  0  0  0  0  0  0  0  0  0
   -2.0929    2.4009    0.3961 h   0  0  0  0  0  0  0  0  0  0  0  0
   -2.3138    0.4009    1.7788 h   0  0  0  0  0  0  0  0  0  0  0  0
   -0.7508   -1.5058    1.5120 h   0  0  0  0  0  0  0  0  0  0  0  0
   -1.2052   -0.9000   -2.0627 h   0  0  0  0  0  0  0  0  0  0  0  0
   -1.3891   -2.1917   -0.8813 h   0  0  0  0  0  0  0  0  0  0  0  0
    1.1831   -0.5874    2.2138 h   0  0  0  0  0  0  0  0  0  0  0  0
    2.1050   -1.4230    0.0759 h   0  0  0  0  0  0  0  0  0  0  0  0
    1.3889   -2.0129   -1.4352 h   0  0  0  0  0  0  0  0  0  0  0  0
   -3.9553   -0.8578   -1.4544 h   0  0  0  0  0  0  0  0  0  0  0  0
   -4.2969    0.2188   -0.0125 h   0  0  0  0  0  0  0  0  0  0  0  0
    4.0362    1.0140   -0.9170 h   0  0  0  0  0  0  0  0  0  0  0  0
    2.9847    0.0027   -2.0131 h   0  0  0  0  0  0  0  0  0  0  0  0
    0.1010   -3.3872   -0.0973 h   0  0  0  0  0  0  0  0  0  0  0  0
    1.6199    1.7357    1.4951 h   0  0  0  0  0  0  0  0  0  0  0  0
    3.1670    2.2580    0.8144 h   0  0  0  0  0  0  0  0  0  0  0  0
    1.6697    3.0434    0.3178 h   0  0  0  0  0  0  0  0  0  0  0  0
  1  2  1  0  0  0  0
  2  3  1  0  0  0  0
  3  4  1  0  0  0  0
  4  5  1  0  0  0  0
  1  6  1  0  0  0  0
  5  6  1  0  0  0  0
  1  7  1  0  0  0  0
  5  8  1  0  0  0  0
  7  8  1  0  0  0  0
  6  9  1  0  0  0  0
  1 10  1  0  0  0  0
  8 11  2  0  0  0  0
  2 12  1  0  0  0  0
 12 13  2  0  0  0  0
  2 14  1  0  0  0  0
 10 15  1  0  0  0  0
 12 16  1  0  0  0  0
  3 17  1  0  0  0  0
  3 18  1  0  0  0  0
  4 19  1  0  0  0  0
  4 20  1  0  0  0  0
  5 21  1  0  0  0  0
  6 22  1  0  0  0  0
  7 23  1  0  0  0  0
  7 24  1  0  0  0  0
  9 25  1  0  0  0  0
 10 26  1  0  0  0  0
 10 27  1  0  0  0  0
 11 28  1  0  0  0  0
 11 29  1  0  0  0  0
 13 30  1  0  0  0  0
 13 31  1  0  0  0  0
 15 32  1  0  0  0  0
 16 33  1  0  0  0  0
 16 34  1  0  0  0  0
 16 35  1  0  0  0  0
M  END
