 xtb: 6.7.1 (edcfbbe)
          08092617483D

 35 36  0     0  0            999 V2000
    0.0461   -0.7687   -0.0361 c   0  0  0  0  0  0  0  0  0  0  0  0
    0.6478    0.4386   -0.8155 c   0  0  0  0  0  0  0  0  0  0  0  0
   -0.4100    1.5479   -0.9726 c   0  0  0  0  0  0  0  0  0  0  0  0
   -1.2509    1.8009    0.2774 c   0  0  0  0  0  0  0  0  0  0  0  0
   -1.7735    0.4777    0.8482 c   0  0  0  0  0  0  0  0  0  0  0  0
   -0.5863   -0.3693    1.3153 c   0  0  0  0  0  0  0  0  0  0  0  0
   -1.2184   -1.2514   -0.7777 c   0  0  0  0  0  0  0  0  0  0  0  0
   -2.3337   -0.3819   -0.2544 c   0  0  0  0  0  0  0  0  0  0  0  0
    0.2265    0.3000    2.2486 o   0  0  0  0  0  0  0  0  0  0  0  0
    1.0578   -1.9101    0.1383 c   0  0  0  0  0  0  0  0  0  0  0  0
   -3.5803   -0.3716   -0.6898 c   0  0  0  0  0  0  0  0  0  0  0  0
    1.9924    0.9429   -0.3201 c   0  0  0  0  0  0  0  0  0  0  0  0
    3.1142    0.4116   -0.7915 c   0  0  0  0  0  0  0  0  0  0  0  0
    0.8422    0.0557   -1.8269 h   0  0  0  0  0  0  0  0  0  0  0  0
    1.3485   -2.5972   -1.0597 o   0  0  0  0  0  0  0  0  0  0  0  0
    2.0627    2.0899    0.6416 c   0  0  0  0  0  0  0  0  0  0  0  0
    0.0788    2.4710   -1.2869 h   0  0  0  0  0  0  0  0  0  0  0  0
   -1.0889    1.2581   -1.7774 h   0  0  0  0  0  0  0  0  0  0  0  0
   -0.6725    2.3028    1.0511 h   0  0  0  0  0  0  0  0  0  0  0  0
   -2.0954    2.4400    0.0129 h   0  0  0  0  0  0  0  0  0  0  0  0
   -2.4870    0.6697    1.6510 h   0  0  0  0  0  0  0  0  0  0  0  0
   -0.9767   -1.2884    1.7848 h   0  0  0  0  0  0  0  0  0  0  0  0
   -1.1204   -1.1918   -1.8614 h   0  0  0  0  0  0  0  0  0  0  0  0
   -1.4114   -2.2984   -0.5304 h   0  0  0  0  0  0  0  0  0  0  0  0
    0.9436   -0.2903    2.5079 h   0  0  0  0  0  0  0  0  0  0  0  0
    0.6384   -2.6726    0.8018 h   0  0  0  0  0  0  0  0  0  0  0  0
    1.9852   -1.5277    0.5874 h   0  0  0  0  0  0  0  0  0  0  0  0
   -3.9038   -1.0067   -1.4977 h   0  0  0  0  0  0  0  0  0  0  0  0
   -4.3264    0.2722   -0.2559 h   0  0  0  0  0  0  0  0  0  0  0  0
    4.0822    0.7548   -0.4651 h   0  0  0  0  0  0  0  0  0  0  0  0
    3.1313   -0.3800   -1.5235 h   0  0  0  0  0  0  0  0  0  0  0  0
    1.7226   -1.9627   -1.6845 h   0  0  0  0  0  0  0  0  0  0  0  0
    1.4651    1.8950    1.5265 h   0  0  0  0  0  0  0  0  0  0  0  0
    3.0932    2.2645    0.9423 h   0  0  0  0  0  0  0  0  0  0  0  0
    1.6881    2.9993    0.1743 h   0  0  0  0  0  0  0  0  0  0  0  0
  1  2  1  0  0  0  0
  2  3  1  0  0  0  0
  3  4  1  0  0  0  0
  4  5  1  0  0  0  0
  1  6  1  0  0  0  0
  5  6  1  0  0  0  0
  1  7  1  0  0  0  0
  5  8  1  0  0  0  0
  7  8  1  0  0  0  0
  6  9  1  0  0  0  0
  1 10  1  0  0  0  0
  8 11  2  0  0  0  0
  2 12  1  0  0  0  0
 12 13  2  0  0  0  0
  2 14  1  0  0  0  0
 10 15  1  0  0  0  0
 12 16  1  0  0  0  0
  3 17  1  0  0  0  0
  3 18  1  0  0  0  0
  4 19  1  0  0  0  0
  4 20  1  0  0  0  0
  5 21  1  0  0  0  0
  6 22  1  0  0  0  0
  7 23  1  0  0  0  0
  7 24  1  0  0  0  0
  9 25  1  0  0  0  0
 10 26  1  0  0  0  0
 10 27  1  0  0  0  0
 11 28  1  0  0  0  0
 11 29  1  0  0  0  0
 13 30  1  0  0  0  0
 13 31  1  0  0  0  0
 15 32  1  0  0  0  0
 16 33  1  0  0  0  0
 16 34  1  0  0  0  0
 16 35  1  0  0  0  0
M  END
