 xtb: 6.7.1 (edcfbbe)
          08092618423D

 35 36  0     0  0            999 V2000
    0.0337   -0.7756   -0.0272 c   0  0  0  0  0  0  0  0  0  0  0  0
    0.6507    0.4170   -0.8130 c   0  0  0  0  0  0  0  0  0  0  0  0
   -0.3993    1.5269   -0.9971 c   0  0  0  0  0  0  0  0  0  0  0  0
   -1.2450    1.8048    0.2450 c   0  0  0  0  0  0  0  0  0  0  0  0
   -1.7746    0.4940    0.8378 c   0  0  0  0  0  0  0  0  0  0  0  0
   -0.5920   -0.3527    1.3184 c   0  0  0  0  0  0  0  0  0  0  0  0
   -1.2318   -1.2559   -0.7670 c   0  0  0  0  0  0  0  0  0  0  0  0
   -2.3414   -0.3749   -0.2535 c   0  0  0  0  0  0  0  0  0  0  0  0
    0.2265    0.3328    2.2348 o   0  0  0  0  0  0  0  0  0  0  0  0
    1.0352   -1.9195    0.1479 c   0  0  0  0  0  0  0  0  0  0  0  0
   -3.5894   -0.3637   -0.6850 c   0  0  0  0  0  0  0  0  0  0  0  0
    1.9919    0.9126   -0.3002 c   0  0  0  0  0  0  0  0  0  0  0  0
    3.1038    0.3142   -0.7092 c   0  0  0  0  0  0  0  0  0  0  0  0
    0.8630    0.0024   -1.8061 h   0  0  0  0  0  0  0  0  0  0  0  0
    1.3816   -2.4437   -1.1210 o   0  0  0  0  0  0  0  0  0  0  0  0
    2.0710    2.1089    0.6000 c   0  0  0  0  0  0  0  0  0  0  0  0
    0.0951    2.4425   -1.3238 h   0  0  0  0  0  0  0  0  0  0  0  0
   -1.0743    1.2269   -1.8012 h   0  0  0  0  0  0  0  0  0  0  0  0
   -0.6678    2.3190    1.0116 h   0  0  0  0  0  0  0  0  0  0  0  0
   -2.0872    2.4414   -0.0331 h   0  0  0  0  0  0  0  0  0  0  0  0
   -2.4866    0.7030    1.6380 h   0  0  0  0  0  0  0  0  0  0  0  0
   -0.9848   -1.2605    1.8096 h   0  0  0  0  0  0  0  0  0  0  0  0
   -1.1202   -1.2081   -1.8491 h   0  0  0  0  0  0  0  0  0  0  0  0
   -1.4374   -2.2983   -0.5104 h   0  0  0  0  0  0  0  0  0  0  0  0
    0.9818   -0.2269    2.4493 h   0  0  0  0  0  0  0  0  0  0  0  0
    0.5731   -2.7070    0.7625 h   0  0  0  0  0  0  0  0  0  0  0  0
    1.9351   -1.5552    0.6622 h   0  0  0  0  0  0  0  0  0  0  0  0
   -3.9178   -1.0050   -1.4860 h   0  0  0  0  0  0  0  0  0  0  0  0
   -4.3312    0.2886   -0.2562 h   0  0  0  0  0  0  0  0  0  0  0  0
    4.0785    0.6359   -0.3792 h   0  0  0  0  0  0  0  0  0  0  0  0
    3.0859   -0.5205   -1.3904 h   0  0  0  0  0  0  0  0  0  0  0  0
    2.0135   -3.1613   -0.9953 h   0  0  0  0  0  0  0  0  0  0  0  0
    1.4598    1.9730    1.4871 h   0  0  0  0  0  0  0  0  0  0  0  0
    3.1012    2.2794    0.9045 h   0  0  0  0  0  0  0  0  0  0  0  0
    1.7202    2.9995    0.0811 h   0  0  0  0  0  0  0  0  0  0  0  0
  1  2  1  0  0  0  0
  2  3  1  0  0  0  0
  3  4  1  0  0  0  0
  4  5  1  0  0  0  0
  1  6  1  0  0  0  0
  5  6  1  0  0  0  0
  1  7  1  0  0  0  0
  5  8  1  0  0  0  0
  7  8  1  0  0  0  0
  6  9  1  0  0  0  0
  1 10  1  0  0  0  0
  8 11  2  0  0  0  0
  2 12  1  0  0  0  0
 12 13  2  0  0  0  0
  2 14  1  0  0  0  0
 10 15  1  0  0  0  0
 12 16  1  0  0  0  0
  3 17  1  0  0  0  0
  3 18  1  0  0  0  0
  4 19  1  0  0  0  0
  4 20  1  0  0  0  0
  5 21  1  0  0  0  0
  6 22  1  0  0  0  0
  7 23  1  0  0  0  0
  7 24  1  0  0  0  0
  9 25  1  0  0  0  0
 10 26  1  0  0  0  0
 10 27  1  0  0  0  0
 11 28  1  0  0  0  0
 11 29  1  0  0  0  0
 13 30  1  0  0  0  0
 13 31  1  0  0  0  0
 15 32  1  0  0  0  0
 16 33  1  0  0  0  0
 16 34  1  0  0  0  0
 16 35  1  0  0  0  0
M  END
