 xtb: 6.7.1 (edcfbbe)
          08092622183D

 50 55  0     0  0            999 V2000
   -0.4292    0.0327   -2.4891 c   0  0  0  0  0  0  0  0  0  0  0  0
    1.0927    0.0401   -2.5901 c   0  0  0  0  0  0  0  0  0  0  0  0
   -2.6097    3.1680    0.5952 c   0  0  0  0  0  0  0  0  0  0  0  0
   -3.7273    2.5870    0.0204 c   0  0  0  0  0  0  0  0  0  0  0  0
   -3.6302    1.3227   -0.5204 c   0  0  0  0  0  0  0  0  0  0  0  0
   -2.4312    0.6105   -0.4707 c   0  0  0  0  0  0  0  0  0  0  0  0
   -1.3123    1.1581    0.1802 c   0  0  0  0  0  0  0  0  0  0  0  0
   -1.4300    2.4495    0.6795 c   0  0  0  0  0  0  0  0  0  0  0  0
   -2.3385   -0.6233   -1.0827 n   0  0  0  0  0  0  0  0  0  0  0  0
   -1.0009   -0.9917   -1.4870 c   0  0  0  0  0  0  0  0  0  0  0  0
   -0.1510   -1.0792   -0.1984 c   0  0  0  0  0  0  0  0  0  0  0  0
   -0.0584    0.3339    0.4377 c   0  0  0  0  0  0  0  0  0  0  0  0
    1.2746   -1.4581   -0.6304 c   0  0  0  0  0  0  0  0  0  0  0  0
    1.7638   -0.1244   -1.2190 c   0  0  0  0  0  0  0  0  0  0  0  0
    1.2566    0.8600   -0.1718 c   0  0  0  0  0  0  0  0  0  0  0  0
    3.2443    0.0816   -1.3884 c   0  0  0  0  0  0  0  0  0  0  0  0
    3.9449    0.9701   -0.6973 c   0  0  0  0  0  0  0  0  0  0  0  0
    3.3837    1.7126    0.4869 c   0  0  0  0  0  0  0  0  0  0  0  0
    2.2566    0.8905    0.9662 n   0  0  0  0  0  0  0  0  0  0  0  0
    1.4213    1.3687    2.0808 c   0  0  0  0  0  0  0  0  0  0  0  0
    0.2419    0.3996    1.9620 c   0  0  0  0  0  0  0  0  0  0  0  0
    2.7736   -0.2991    1.3510 o   0  0  0  0  0  0  0  0  0  0  0  0
    1.1685    1.8792   -0.5492 h   0  0  0  0  0  0  0  0  0  0  0  0
   -0.8078   -2.1132    0.6886 c   0  0  0  0  0  0  0  0  0  0  0  0
   -1.4766   -1.8861    1.6699 o   0  0  0  0  0  0  0  0  0  0  0  0
   -0.5940   -3.3445    0.2272 o   0  0  0  0  0  0  0  0  0  0  0  0
   -1.1883   -4.4177    0.9575 c   0  0  0  0  0  0  0  0  0  0  0  0
   -0.8604   -0.1656   -3.4730 h   0  0  0  0  0  0  0  0  0  0  0  0
   -0.7634    1.0249   -2.1808 h   0  0  0  0  0  0  0  0  0  0  0  0
    1.4329   -0.7829   -3.2213 h   0  0  0  0  0  0  0  0  0  0  0  0
    1.4152    0.9733   -3.0577 h   0  0  0  0  0  0  0  0  0  0  0  0
   -2.6575    4.1713    0.9910 h   0  0  0  0  0  0  0  0  0  0  0  0
   -4.6625    3.1250   -0.0257 h   0  0  0  0  0  0  0  0  0  0  0  0
   -4.4837    0.8662   -1.0016 h   0  0  0  0  0  0  0  0  0  0  0  0
   -0.5843    2.9206    1.1525 h   0  0  0  0  0  0  0  0  0  0  0  0
   -3.0734   -0.8183   -1.7476 h   0  0  0  0  0  0  0  0  0  0  0  0
   -1.0359   -1.9880   -1.9375 h   0  0  0  0  0  0  0  0  0  0  0  0
    1.8868   -1.7241    0.2307 h   0  0  0  0  0  0  0  0  0  0  0  0
    1.2773   -2.2724   -1.3513 h   0  0  0  0  0  0  0  0  0  0  0  0
    3.7141   -0.4914   -2.1741 h   0  0  0  0  0  0  0  0  0  0  0  0
    4.9941    1.1262   -0.8967 h   0  0  0  0  0  0  0  0  0  0  0  0
    3.0595    2.7277    0.2402 h   0  0  0  0  0  0  0  0  0  0  0  0
    4.1298    1.7478    1.2834 h   0  0  0  0  0  0  0  0  0  0  0  0
    1.9715    1.2404    3.0118 h   0  0  0  0  0  0  0  0  0  0  0  0
    1.1475    2.4130    1.9388 h   0  0  0  0  0  0  0  0  0  0  0  0
   -0.6262    0.7093    2.5375 h   0  0  0  0  0  0  0  0  0  0  0  0
    0.5759   -0.5719    2.3238 h   0  0  0  0  0  0  0  0  0  0  0  0
   -0.9664   -5.3193    0.3934 h   0  0  0  0  0  0  0  0  0  0  0  0
   -0.7585   -4.4722    1.9589 h   0  0  0  0  0  0  0  0  0  0  0  0
   -2.2651   -4.2619    1.0423 h   0  0  0  0  0  0  0  0  0  0  0  0
  1  2  1  0  0  0  0
  3  4  4  0  0  0  0
  4  5  4  0  0  0  0
  5  6  4  0  0  0  0
  6  7  4  0  0  0  0
  3  8  4  0  0  0  0
  7  8  4  0  0  0  0
  6  9  1  0  0  0  0
  1 10  1  0  0  0  0
  9 10  1  0  0  0  0
 10 11  1  0  0  0  0
  7 12  1  0  0  0  0
 11 12  1  0  0  0  0
 11 13  1  0  0  0  0
  2 14  1  0  0  0  0
 13 14  1  0  0  0  0
 12 15  1  0  0  0  0
 14 15  1  0  0  0  0
 14 16  1  0  0  0  0
 16 17  2  0  0  0  0
 17 18  1  0  0  0  0
 15 19  1  0  0  0  0
 18 19  1  0  0  0  0
 19 20  1  0  0  0  0
 12 21  1  0  0  0  0
 20 21  1  0  0  0  0
 19 22  1  0  0  0  0
 15 23  1  0  0  0  0
 11 24  1  0  0  0  0
 24 25  2  0  0  0  0
 24 26  1  0  0  0  0
 26 27  1  0  0  0  0
  1 28  1  0  0  0  0
  1 29  1  0  0  0  0
  2 30  1  0  0  0  0
  2 31  1  0  0  0  0
  3 32  1  0  0  0  0
  4 33  1  0  0  0  0
  5 34  1  0  0  0  0
  8 35  1  0  0  0  0
  9 36  1  0  0  0  0
 10 37  1  0  0  0  0
 13 38  1  0  0  0  0
 13 39  1  0  0  0  0
 16 40  1  0  0  0  0
 17 41  1  0  0  0  0
 18 42  1  0  0  0  0
 18 43  1  0  0  0  0
 20 44  1  0  0  0  0
 20 45  1  0  0  0  0
 21 46  1  0  0  0  0
 21 47  1  0  0  0  0
 27 48  1  0  0  0  0
 27 49  1  0  0  0  0
 27 50  1  0  0  0  0
M  END
