 xtb: 6.7.1 (edcfbbe)
          08092617053D

 35 36  0     0  0            999 V2000
    0.0773   -0.6190    0.1097 c   0  0  0  0  0  0  0  0  0  0  0  0
   -0.9569    0.4048    0.6498 c   0  0  0  0  0  0  0  0  0  0  0  0
   -0.3340    1.8152    0.7392 c   0  0  0  0  0  0  0  0  0  0  0  0
    0.5725    2.2054   -0.4288 c   0  0  0  0  0  0  0  0  0  0  0  0
    1.4911    1.0435   -0.8180 c   0  0  0  0  0  0  0  0  0  0  0  0
    0.6247   -0.1434   -1.2519 c   0  0  0  0  0  0  0  0  0  0  0  0
    1.3397   -0.5836    0.9953 c   0  0  0  0  0  0  0  0  0  0  0  0
    2.1948    0.5076    0.4040 c   0  0  0  0  0  0  0  0  0  0  0  0
    1.3673   -1.1290   -1.9400 o   0  0  0  0  0  0  0  0  0  0  0  0
   -0.5105   -2.0320    0.0148 c   0  0  0  0  0  0  0  0  0  0  0  0
    3.3616    0.9186    0.8671 c   0  0  0  0  0  0  0  0  0  0  0  0
   -2.2946    0.3913   -0.0667 c   0  0  0  0  0  0  0  0  0  0  0  0
   -2.5426    0.9860   -1.2240 c   0  0  0  0  0  0  0  0  0  0  0  0
   -1.1680    0.1065    1.6848 h   0  0  0  0  0  0  0  0  0  0  0  0
   -0.7675   -2.6235    1.2708 o   0  0  0  0  0  0  0  0  0  0  0  0
   -3.4065   -0.2990    0.6759 c   0  0  0  0  0  0  0  0  0  0  0  0
   -1.1377    2.5475    0.8356 h   0  0  0  0  0  0  0  0  0  0  0  0
    0.2624    1.8639    1.6525 h   0  0  0  0  0  0  0  0  0  0  0  0
   -0.0123    2.5012   -1.3000 h   0  0  0  0  0  0  0  0  0  0  0  0
    1.1780    3.0644   -0.1321 h   0  0  0  0  0  0  0  0  0  0  0  0
    2.1845    1.3533   -1.6033 h   0  0  0  0  0  0  0  0  0  0  0  0
   -0.1710    0.1271   -1.9456 h   0  0  0  0  0  0  0  0  0  0  0  0
    1.8548   -1.5471    0.9541 h   0  0  0  0  0  0  0  0  0  0  0  0
    1.1078   -0.3975    2.0442 h   0  0  0  0  0  0  0  0  0  0  0  0
    2.1469   -1.3396   -1.4087 h   0  0  0  0  0  0  0  0  0  0  0  0
    0.2076   -2.6947   -0.4744 h   0  0  0  0  0  0  0  0  0  0  0  0
   -1.4182   -2.0112   -0.6030 h   0  0  0  0  0  0  0  0  0  0  0  0
    3.8010    0.4953    1.7551 h   0  0  0  0  0  0  0  0  0  0  0  0
    3.9221    1.6982    0.3791 h   0  0  0  0  0  0  0  0  0  0  0  0
   -3.5266    0.9554   -1.6634 h   0  0  0  0  0  0  0  0  0  0  0  0
   -1.8054    1.5285   -1.7854 h   0  0  0  0  0  0  0  0  0  0  0  0
   -1.3715   -2.0470    1.7578 h   0  0  0  0  0  0  0  0  0  0  0  0
   -3.2039   -1.3620    0.8003 h   0  0  0  0  0  0  0  0  0  0  0  0
   -3.5236    0.1386    1.6676 h   0  0  0  0  0  0  0  0  0  0  0  0
   -4.3480   -0.1969    0.1420 h   0  0  0  0  0  0  0  0  0  0  0  0
  1  2  1  0  0  0  0
  2  3  1  0  0  0  0
  3  4  1  0  0  0  0
  4  5  1  0  0  0  0
  1  6  1  0  0  0  0
  5  6  1  0  0  0  0
  1  7  1  0  0  0  0
  5  8  1  0  0  0  0
  7  8  1  0  0  0  0
  6  9  1  0  0  0  0
  1 10  1  0  0  0  0
  8 11  2  0  0  0  0
  2 12  1  0  0  0  0
 12 13  2  0  0  0  0
  2 14  1  0  0  0  0
 10 15  1  0  0  0  0
 12 16  1  0  0  0  0
  3 17  1  0  0  0  0
  3 18  1  0  0  0  0
  4 19  1  0  0  0  0
  4 20  1  0  0  0  0
  5 21  1  0  0  0  0
  6 22  1  0  0  0  0
  7 23  1  0  0  0  0
  7 24  1  0  0  0  0
  9 25  1  0  0  0  0
 10 26  1  0  0  0  0
 10 27  1  0  0  0  0
 11 28  1  0  0  0  0
 11 29  1  0  0  0  0
 13 30  1  0  0  0  0
 13 31  1  0  0  0  0
 15 32  1  0  0  0  0
 16 33  1  0  0  0  0
 16 34  1  0  0  0  0
 16 35  1  0  0  0  0
M  END
