 xtb: 6.7.1 (edcfbbe)
          08092618423D

 35 36  0     0  0            999 V2000
   -0.0708   -0.7785   -0.3232 c   0  0  0  0  0  0  0  0  0  0  0  0
    0.5431    0.5272   -0.9080 c   0  0  0  0  0  0  0  0  0  0  0  0
   -0.4739    1.6863   -0.8046 c   0  0  0  0  0  0  0  0  0  0  0  0
   -1.2635    1.7478    0.5045 c   0  0  0  0  0  0  0  0  0  0  0  0
   -1.7795    0.3580    0.8884 c   0  0  0  0  0  0  0  0  0  0  0  0
   -0.5906   -0.5880    1.1173 c   0  0  0  0  0  0  0  0  0  0  0  0
   -1.3963   -1.0646   -1.0584 c   0  0  0  0  0  0  0  0  0  0  0  0
   -2.4420   -0.2812   -0.3033 c   0  0  0  0  0  0  0  0  0  0  0  0
    0.3612   -0.2034    2.0794 o   0  0  0  0  0  0  0  0  0  0  0  0
    0.8696   -1.9891   -0.3972 c   0  0  0  0  0  0  0  0  0  0  0  0
   -3.7163   -0.1728   -0.6320 c   0  0  0  0  0  0  0  0  0  0  0  0
    1.9278    0.9231   -0.4217 c   0  0  0  0  0  0  0  0  0  0  0  0
    2.1624    1.8180    0.5305 c   0  0  0  0  0  0  0  0  0  0  0  0
    0.6710    0.3198   -1.9781 h   0  0  0  0  0  0  0  0  0  0  0  0
    1.9581   -1.9315    0.5005 o   0  0  0  0  0  0  0  0  0  0  0  0
    3.0799    0.3300   -1.1804 c   0  0  0  0  0  0  0  0  0  0  0  0
    0.0510    2.6300   -0.9635 h   0  0  0  0  0  0  0  0  0  0  0  0
   -1.1952    1.5788   -1.6166 h   0  0  0  0  0  0  0  0  0  0  0  0
   -0.6653    2.1432    1.3269 h   0  0  0  0  0  0  0  0  0  0  0  0
   -2.1125    2.4215    0.3703 h   0  0  0  0  0  0  0  0  0  0  0  0
   -2.4344    0.4239    1.7593 h   0  0  0  0  0  0  0  0  0  0  0  0
   -0.9743   -1.5496    1.4853 h   0  0  0  0  0  0  0  0  0  0  0  0
   -1.3585   -0.7924   -2.1128 h   0  0  0  0  0  0  0  0  0  0  0  0
   -1.6325   -2.1303   -1.0062 h   0  0  0  0  0  0  0  0  0  0  0  0
    0.8351    0.5727    1.7411 h   0  0  0  0  0  0  0  0  0  0  0  0
    1.2979   -2.0909   -1.3984 h   0  0  0  0  0  0  0  0  0  0  0  0
    0.2818   -2.8961   -0.1846 h   0  0  0  0  0  0  0  0  0  0  0  0
   -4.1172   -0.6475   -1.5120 h   0  0  0  0  0  0  0  0  0  0  0  0
   -4.4092    0.3945   -0.0343 h   0  0  0  0  0  0  0  0  0  0  0  0
    3.1716    2.0893    0.7936 h   0  0  0  0  0  0  0  0  0  0  0  0
    1.3973    2.3474    1.0717 h   0  0  0  0  0  0  0  0  0  0  0  0
    1.6254   -1.5882    1.3457 h   0  0  0  0  0  0  0  0  0  0  0  0
    3.1894   -0.7261   -0.9471 h   0  0  0  0  0  0  0  0  0  0  0  0
    2.9210    0.4288   -2.2535 h   0  0  0  0  0  0  0  0  0  0  0  0
    4.0085    0.8305   -0.9177 h   0  0  0  0  0  0  0  0  0  0  0  0
  1  2  1  0  0  0  0
  2  3  1  0  0  0  0
  3  4  1  0  0  0  0
  4  5  1  0  0  0  0
  1  6  1  0  0  0  0
  5  6  1  0  0  0  0
  1  7  1  0  0  0  0
  5  8  1  0  0  0  0
  7  8  1  0  0  0  0
  6  9  1  0  0  0  0
  1 10  1  0  0  0  0
  8 11  2  0  0  0  0
  2 12  1  0  0  0  0
 12 13  2  0  0  0  0
  2 14  1  0  0  0  0
 10 15  1  0  0  0  0
 12 16  1  0  0  0  0
  3 17  1  0  0  0  0
  3 18  1  0  0  0  0
  4 19  1  0  0  0  0
  4 20  1  0  0  0  0
  5 21  1  0  0  0  0
  6 22  1  0  0  0  0
  7 23  1  0  0  0  0
  7 24  1  0  0  0  0
  9 25  1  0  0  0  0
 10 26  1  0  0  0  0
 10 27  1  0  0  0  0
 11 28  1  0  0  0  0
 11 29  1  0  0  0  0
 13 30  1  0  0  0  0
 13 31  1  0  0  0  0
 15 32  1  0  0  0  0
 16 33  1  0  0  0  0
 16 34  1  0  0  0  0
 16 35  1  0  0  0  0
M  END
