 xtb: 6.7.1 (edcfbbe)
          08092617053D

 35 36  0     0  0            999 V2000
    0.0868   -0.6285    0.1071 c   0  0  0  0  0  0  0  0  0  0  0  0
   -0.9421    0.3998    0.6525 c   0  0  0  0  0  0  0  0  0  0  0  0
   -0.3175    1.8099    0.7361 c   0  0  0  0  0  0  0  0  0  0  0  0
    0.5824    2.2005   -0.4373 c   0  0  0  0  0  0  0  0  0  0  0  0
    1.4958    1.0348   -0.8242 c   0  0  0  0  0  0  0  0  0  0  0  0
    0.6227   -0.1447   -1.2567 c   0  0  0  0  0  0  0  0  0  0  0  0
    1.3587   -0.6025    0.9762 c   0  0  0  0  0  0  0  0  0  0  0  0
    2.1973    0.5058    0.3998 c   0  0  0  0  0  0  0  0  0  0  0  0
    1.4446   -1.0908   -1.9193 o   0  0  0  0  0  0  0  0  0  0  0  0
   -0.5068   -2.0409    0.0286 c   0  0  0  0  0  0  0  0  0  0  0  0
    3.3457    0.9444    0.8813 c   0  0  0  0  0  0  0  0  0  0  0  0
   -2.2858    0.3881   -0.0545 c   0  0  0  0  0  0  0  0  0  0  0  0
   -2.5456    0.9994   -1.2010 c   0  0  0  0  0  0  0  0  0  0  0  0
   -1.1452    0.1059    1.6902 h   0  0  0  0  0  0  0  0  0  0  0  0
   -0.8273   -2.5954    1.2861 o   0  0  0  0  0  0  0  0  0  0  0  0
   -3.3922   -0.3179    0.6823 c   0  0  0  0  0  0  0  0  0  0  0  0
   -1.1203    2.5425    0.8401 h   0  0  0  0  0  0  0  0  0  0  0  0
    0.2871    1.8553    1.6438 h   0  0  0  0  0  0  0  0  0  0  0  0
   -0.0050    2.4997   -1.3058 h   0  0  0  0  0  0  0  0  0  0  0  0
    1.1924    3.0564   -0.1426 h   0  0  0  0  0  0  0  0  0  0  0  0
    2.1924    1.3269   -1.6117 h   0  0  0  0  0  0  0  0  0  0  0  0
   -0.1875    0.1590   -1.9268 h   0  0  0  0  0  0  0  0  0  0  0  0
    1.8883   -1.5527    0.8758 h   0  0  0  0  0  0  0  0  0  0  0  0
    1.1447   -0.4574    2.0350 h   0  0  0  0  0  0  0  0  0  0  0  0
    0.8888   -1.7876   -2.2860 h   0  0  0  0  0  0  0  0  0  0  0  0
    0.2344   -2.7269   -0.3903 h   0  0  0  0  0  0  0  0  0  0  0  0
   -1.3902   -2.0368   -0.6275 h   0  0  0  0  0  0  0  0  0  0  0  0
    3.7834    0.5273    1.7729 h   0  0  0  0  0  0  0  0  0  0  0  0
    3.8971    1.7344    0.4001 h   0  0  0  0  0  0  0  0  0  0  0  0
   -3.5330    0.9714   -1.6332 h   0  0  0  0  0  0  0  0  0  0  0  0
   -1.8160    1.5574   -1.7574 h   0  0  0  0  0  0  0  0  0  0  0  0
   -1.4073   -1.9782    1.7520 h   0  0  0  0  0  0  0  0  0  0  0  0
   -3.4911    0.0877    1.6893 h   0  0  0  0  0  0  0  0  0  0  0  0
   -4.3406   -0.1894    0.1663 h   0  0  0  0  0  0  0  0  0  0  0  0
   -3.2000   -1.3866    0.7682 h   0  0  0  0  0  0  0  0  0  0  0  0
  1  2  1  0  0  0  0
  2  3  1  0  0  0  0
  3  4  1  0  0  0  0
  4  5  1  0  0  0  0
  1  6  1  0  0  0  0
  5  6  1  0  0  0  0
  1  7  1  0  0  0  0
  5  8  1  0  0  0  0
  7  8  1  0  0  0  0
  6  9  1  0  0  0  0
  1 10  1  0  0  0  0
  8 11  2  0  0  0  0
  2 12  1  0  0  0  0
 12 13  2  0  0  0  0
  2 14  1  0  0  0  0
 10 15  1  0  0  0  0
 12 16  1  0  0  0  0
  3 17  1  0  0  0  0
  3 18  1  0  0  0  0
  4 19  1  0  0  0  0
  4 20  1  0  0  0  0
  5 21  1  0  0  0  0
  6 22  1  0  0  0  0
  7 23  1  0  0  0  0
  7 24  1  0  0  0  0
  9 25  1  0  0  0  0
 10 26  1  0  0  0  0
 10 27  1  0  0  0  0
 11 28  1  0  0  0  0
 11 29  1  0  0  0  0
 13 30  1  0  0  0  0
 13 31  1  0  0  0  0
 15 32  1  0  0  0  0
 16 33  1  0  0  0  0
 16 34  1  0  0  0  0
 16 35  1  0  0  0  0
M  END
