 xtb: 6.7.1 (edcfbbe)
          08092618203D

 35 36  0     0  0            999 V2000
    0.0277   -0.7727   -0.0286 c   0  0  0  0  0  0  0  0  0  0  0  0
    0.6441    0.4217   -0.8119 c   0  0  0  0  0  0  0  0  0  0  0  0
   -0.4029    1.5363   -0.9871 c   0  0  0  0  0  0  0  0  0  0  0  0
   -1.2348    1.8075    0.2651 c   0  0  0  0  0  0  0  0  0  0  0  0
   -1.7835    0.4946    0.8368 c   0  0  0  0  0  0  0  0  0  0  0  0
   -0.6052   -0.3673    1.3144 c   0  0  0  0  0  0  0  0  0  0  0  0
   -1.2383   -1.2480   -0.7772 c   0  0  0  0  0  0  0  0  0  0  0  0
   -2.3478   -0.3627   -0.2643 c   0  0  0  0  0  0  0  0  0  0  0  0
    0.2844    0.2469    2.2139 o   0  0  0  0  0  0  0  0  0  0  0  0
    1.0360   -1.9123    0.1569 c   0  0  0  0  0  0  0  0  0  0  0  0
   -3.5938   -0.3472   -0.7014 c   0  0  0  0  0  0  0  0  0  0  0  0
    1.9934    0.9104   -0.3130 c   0  0  0  0  0  0  0  0  0  0  0  0
    3.0975    0.3243   -0.7574 c   0  0  0  0  0  0  0  0  0  0  0  0
    0.8521    0.0159   -1.8102 h   0  0  0  0  0  0  0  0  0  0  0  0
    1.4983   -2.4623   -1.0579 o   0  0  0  0  0  0  0  0  0  0  0  0
    2.0881    2.0791    0.6203 c   0  0  0  0  0  0  0  0  0  0  0  0
    0.0941    2.4514   -1.3115 h   0  0  0  0  0  0  0  0  0  0  0  0
   -1.0859    1.2467   -1.7886 h   0  0  0  0  0  0  0  0  0  0  0  0
   -0.6315    2.2952    1.0305 h   0  0  0  0  0  0  0  0  0  0  0  0
   -2.0641    2.4697    0.0082 h   0  0  0  0  0  0  0  0  0  0  0  0
   -2.5085    0.6991    1.6289 h   0  0  0  0  0  0  0  0  0  0  0  0
   -1.0025   -1.2840    1.7851 h   0  0  0  0  0  0  0  0  0  0  0  0
   -1.1376   -1.1843   -1.8608 h   0  0  0  0  0  0  0  0  0  0  0  0
   -1.4588   -2.2884   -0.5185 h   0  0  0  0  0  0  0  0  0  0  0  0
   -0.2068    0.4699    3.0147 h   0  0  0  0  0  0  0  0  0  0  0  0
    0.5770   -2.7006    0.7723 h   0  0  0  0  0  0  0  0  0  0  0  0
    1.9217   -1.5430    0.6765 h   0  0  0  0  0  0  0  0  0  0  0  0
   -3.9216   -0.9845   -1.5058 h   0  0  0  0  0  0  0  0  0  0  0  0
   -4.3358    0.3061   -0.2747 h   0  0  0  0  0  0  0  0  0  0  0  0
    4.0761    0.6441   -0.4380 h   0  0  0  0  0  0  0  0  0  0  0  0
    3.0733   -0.5132   -1.4344 h   0  0  0  0  0  0  0  0  0  0  0  0
    0.7319   -2.7772   -1.5551 h   0  0  0  0  0  0  0  0  0  0  0  0
    1.6020    2.9588    0.2035 h   0  0  0  0  0  0  0  0  0  0  0  0
    1.6158    1.8366    1.5677 h   0  0  0  0  0  0  0  0  0  0  0  0
    3.1319    2.3208    0.8058 h   0  0  0  0  0  0  0  0  0  0  0  0
  1  2  1  0  0  0  0
  2  3  1  0  0  0  0
  3  4  1  0  0  0  0
  4  5  1  0  0  0  0
  1  6  1  0  0  0  0
  5  6  1  0  0  0  0
  1  7  1  0  0  0  0
  5  8  1  0  0  0  0
  7  8  1  0  0  0  0
  6  9  1  0  0  0  0
  1 10  1  0  0  0  0
  8 11  2  0  0  0  0
  2 12  1  0  0  0  0
 12 13  2  0  0  0  0
  2 14  1  0  0  0  0
 10 15  1  0  0  0  0
 12 16  1  0  0  0  0
  3 17  1  0  0  0  0
  3 18  1  0  0  0  0
  4 19  1  0  0  0  0
  4 20  1  0  0  0  0
  5 21  1  0  0  0  0
  6 22  1  0  0  0  0
  7 23  1  0  0  0  0
  7 24  1  0  0  0  0
  9 25  1  0  0  0  0
 10 26  1  0  0  0  0
 10 27  1  0  0  0  0
 11 28  1  0  0  0  0
 11 29  1  0  0  0  0
 13 30  1  0  0  0  0
 13 31  1  0  0  0  0
 15 32  1  0  0  0  0
 16 33  1  0  0  0  0
 16 34  1  0  0  0  0
 16 35  1  0  0  0  0
M  END
