 xtb: 6.7.1 (edcfbbe)
          08092621573D

 50 55  0     0  0            999 V2000
   -0.3586    0.1222   -2.5574 c   0  0  0  0  0  0  0  0  0  0  0  0
    1.1615    0.2031   -2.6472 c   0  0  0  0  0  0  0  0  0  0  0  0
   -2.6880    2.9140    0.7514 c   0  0  0  0  0  0  0  0  0  0  0  0
   -3.7731    2.3371    0.1151 c   0  0  0  0  0  0  0  0  0  0  0  0
   -3.6171    1.1265   -0.5251 c   0  0  0  0  0  0  0  0  0  0  0  0
   -2.3904    0.4629   -0.5169 c   0  0  0  0  0  0  0  0  0  0  0  0
   -1.3021    1.0012    0.1909 c   0  0  0  0  0  0  0  0  0  0  0  0
   -1.4798    2.2407    0.7920 c   0  0  0  0  0  0  0  0  0  0  0  0
   -2.2404   -0.7150   -1.2189 n   0  0  0  0  0  0  0  0  0  0  0  0
   -0.8873   -0.9977   -1.6370 c   0  0  0  0  0  0  0  0  0  0  0  0
   -0.0392   -1.1462   -0.3535 c   0  0  0  0  0  0  0  0  0  0  0  0
   -0.0155    0.2146    0.3898 c   0  0  0  0  0  0  0  0  0  0  0  0
    1.4055   -1.4216   -0.7939 c   0  0  0  0  0  0  0  0  0  0  0  0
    1.8316   -0.0300   -1.2860 c   0  0  0  0  0  0  0  0  0  0  0  0
    1.2743    0.8477   -0.1714 c   0  0  0  0  0  0  0  0  0  0  0  0
    3.3007    0.2553   -1.4289 c   0  0  0  0  0  0  0  0  0  0  0  0
    3.9613    1.1132   -0.6644 c   0  0  0  0  0  0  0  0  0  0  0  0
    3.3664    1.7295    0.5741 c   0  0  0  0  0  0  0  0  0  0  0  0
    2.2761    0.8172    0.9780 n   0  0  0  0  0  0  0  0  0  0  0  0
    1.4132    1.1802    2.1192 c   0  0  0  0  0  0  0  0  0  0  0  0
    0.2837    0.1668    1.9151 c   0  0  0  0  0  0  0  0  0  0  0  0
    2.8245   -0.3581    1.2646 o   0  0  0  0  0  0  0  0  0  0  0  0
    1.1440    1.8915   -0.4654 h   0  0  0  0  0  0  0  0  0  0  0  0
   -0.6445   -2.3101    0.4065 c   0  0  0  0  0  0  0  0  0  0  0  0
   -0.4138   -3.4642    0.1569 o   0  0  0  0  0  0  0  0  0  0  0  0
   -1.5161   -1.9190    1.3383 o   0  0  0  0  0  0  0  0  0  0  0  0
   -2.1757   -2.9564    2.0484 c   0  0  0  0  0  0  0  0  0  0  0  0
   -0.7789   -0.0169   -3.5567 h   0  0  0  0  0  0  0  0  0  0  0  0
   -0.7357    1.0739   -2.1768 h   0  0  0  0  0  0  0  0  0  0  0  0
    1.5385   -0.5581   -3.3332 h   0  0  0  0  0  0  0  0  0  0  0  0
    1.4446    1.1801   -3.0479 h   0  0  0  0  0  0  0  0  0  0  0  0
   -2.7818    3.8787    1.2264 h   0  0  0  0  0  0  0  0  0  0  0  0
   -4.7289    2.8390    0.0988 h   0  0  0  0  0  0  0  0  0  0  0  0
   -4.4453    0.6770   -1.0552 h   0  0  0  0  0  0  0  0  0  0  0  0
   -0.6589    2.7084    1.3116 h   0  0  0  0  0  0  0  0  0  0  0  0
   -2.9654   -0.8990   -1.8972 h   0  0  0  0  0  0  0  0  0  0  0  0
   -0.8775   -1.9584   -2.1618 h   0  0  0  0  0  0  0  0  0  0  0  0
    2.0254   -1.7010    0.0591 h   0  0  0  0  0  0  0  0  0  0  0  0
    1.4572   -2.1890   -1.5627 h   0  0  0  0  0  0  0  0  0  0  0  0
    3.7971   -0.2312   -2.2555 h   0  0  0  0  0  0  0  0  0  0  0  0
    5.0035    1.3289   -0.8438 h   0  0  0  0  0  0  0  0  0  0  0  0
    3.0054    2.7515    0.4120 h   0  0  0  0  0  0  0  0  0  0  0  0
    4.1093    1.7264    1.3744 h   0  0  0  0  0  0  0  0  0  0  0  0
    1.9659    1.0053    3.0412 h   0  0  0  0  0  0  0  0  0  0  0  0
    1.0924    2.2212    2.0603 h   0  0  0  0  0  0  0  0  0  0  0  0
   -0.5971    0.3846    2.5135 h   0  0  0  0  0  0  0  0  0  0  0  0
    0.6816   -0.8100    2.1868 h   0  0  0  0  0  0  0  0  0  0  0  0
   -2.8840   -2.4675    2.7120 h   0  0  0  0  0  0  0  0  0  0  0  0
   -2.6934   -3.6209    1.3540 h   0  0  0  0  0  0  0  0  0  0  0  0
   -1.4534   -3.5422    2.6207 h   0  0  0  0  0  0  0  0  0  0  0  0
  1  2  1  0  0  0  0
  3  4  4  0  0  0  0
  4  5  4  0  0  0  0
  5  6  4  0  0  0  0
  6  7  4  0  0  0  0
  3  8  4  0  0  0  0
  7  8  4  0  0  0  0
  6  9  1  0  0  0  0
  1 10  1  0  0  0  0
  9 10  1  0  0  0  0
 10 11  1  0  0  0  0
  7 12  1  0  0  0  0
 11 12  1  0  0  0  0
 11 13  1  0  0  0  0
  2 14  1  0  0  0  0
 13 14  1  0  0  0  0
 12 15  1  0  0  0  0
 14 15  1  0  0  0  0
 14 16  1  0  0  0  0
 16 17  2  0  0  0  0
 17 18  1  0  0  0  0
 15 19  1  0  0  0  0
 18 19  1  0  0  0  0
 19 20  1  0  0  0  0
 12 21  1  0  0  0  0
 20 21  1  0  0  0  0
 19 22  1  0  0  0  0
 15 23  1  0  0  0  0
 11 24  1  0  0  0  0
 24 25  2  0  0  0  0
 24 26  1  0  0  0  0
 26 27  1  0  0  0  0
  1 28  1  0  0  0  0
  1 29  1  0  0  0  0
  2 30  1  0  0  0  0
  2 31  1  0  0  0  0
  3 32  1  0  0  0  0
  4 33  1  0  0  0  0
  5 34  1  0  0  0  0
  8 35  1  0  0  0  0
  9 36  1  0  0  0  0
 10 37  1  0  0  0  0
 13 38  1  0  0  0  0
 13 39  1  0  0  0  0
 16 40  1  0  0  0  0
 17 41  1  0  0  0  0
 18 42  1  0  0  0  0
 18 43  1  0  0  0  0
 20 44  1  0  0  0  0
 20 45  1  0  0  0  0
 21 46  1  0  0  0  0
 21 47  1  0  0  0  0
 27 48  1  0  0  0  0
 27 49  1  0  0  0  0
 27 50  1  0  0  0  0
M  END
