 xtb: 6.7.1 (edcfbbe)
          08092615283D

 35 36  0     0  0            999 V2000
   -0.0437   -0.5529    0.3072 c   0  0  0  0  0  0  0  0  0  0  0  0
   -1.0267    0.5790    0.7010 c   0  0  0  0  0  0  0  0  0  0  0  0
   -0.3409    1.9591    0.6228 c   0  0  0  0  0  0  0  0  0  0  0  0
    0.5848    2.1577   -0.5772 c   0  0  0  0  0  0  0  0  0  0  0  0
    1.4465    0.9143   -0.8085 c   0  0  0  0  0  0  0  0  0  0  0  0
    0.5332   -0.2796   -1.0981 c   0  0  0  0  0  0  0  0  0  0  0  0
    1.2159   -0.4712    1.1891 c   0  0  0  0  0  0  0  0  0  0  0  0
    2.1183    0.5048    0.4803 c   0  0  0  0  0  0  0  0  0  0  0  0
    1.2532   -1.3680   -1.6458 o   0  0  0  0  0  0  0  0  0  0  0  0
   -0.7357   -1.9221    0.4196 c   0  0  0  0  0  0  0  0  0  0  0  0
    3.2951    0.9285    0.9033 c   0  0  0  0  0  0  0  0  0  0  0  0
   -2.3549    0.5338   -0.0279 c   0  0  0  0  0  0  0  0  0  0  0  0
   -2.5697    0.9820   -1.2553 c   0  0  0  0  0  0  0  0  0  0  0  0
   -1.2633    0.4110    1.7592 h   0  0  0  0  0  0  0  0  0  0  0  0
    0.1284   -3.0091    0.2216 o   0  0  0  0  0  0  0  0  0  0  0  0
   -3.4984    0.0040    0.7906 c   0  0  0  0  0  0  0  0  0  0  0  0
   -1.1100    2.7336    0.6217 h   0  0  0  0  0  0  0  0  0  0  0  0
    0.2550    2.0927    1.5280 h   0  0  0  0  0  0  0  0  0  0  0  0
    0.0155    2.3700   -1.4825 h   0  0  0  0  0  0  0  0  0  0  0  0
    1.2306    3.0176   -0.3861 h   0  0  0  0  0  0  0  0  0  0  0  0
    2.1589    1.0936   -1.6180 h   0  0  0  0  0  0  0  0  0  0  0  0
   -0.2477   -0.0696   -1.8292 h   0  0  0  0  0  0  0  0  0  0  0  0
    1.6810   -1.4596    1.2533 h   0  0  0  0  0  0  0  0  0  0  0  0
    0.9903   -0.1570    2.2086 h   0  0  0  0  0  0  0  0  0  0  0  0
    2.0814   -1.4511   -1.1568 h   0  0  0  0  0  0  0  0  0  0  0  0
   -1.5669   -1.9582   -0.2993 h   0  0  0  0  0  0  0  0  0  0  0  0
   -1.1372   -2.0459    1.4300 h   0  0  0  0  0  0  0  0  0  0  0  0
    3.7110    0.6041    1.8423 h   0  0  0  0  0  0  0  0  0  0  0  0
    3.8870    1.6223    0.3305 h   0  0  0  0  0  0  0  0  0  0  0  0
   -3.5517    0.9359   -1.6967 h   0  0  0  0  0  0  0  0  0  0  0  0
   -1.8085    1.4186   -1.8742 h   0  0  0  0  0  0  0  0  0  0  0  0
    0.5039   -2.9074   -0.6671 h   0  0  0  0  0  0  0  0  0  0  0  0
   -3.2706   -0.9793    1.1960 h   0  0  0  0  0  0  0  0  0  0  0  0
   -3.6871    0.6730    1.6308 h   0  0  0  0  0  0  0  0  0  0  0  0
   -4.4055   -0.0643    0.1960 h   0  0  0  0  0  0  0  0  0  0  0  0
  1  2  1  0  0  0  0
  2  3  1  0  0  0  0
  3  4  1  0  0  0  0
  4  5  1  0  0  0  0
  1  6  1  0  0  0  0
  5  6  1  0  0  0  0
  1  7  1  0  0  0  0
  5  8  1  0  0  0  0
  7  8  1  0  0  0  0
  6  9  1  0  0  0  0
  1 10  1  0  0  0  0
  8 11  2  0  0  0  0
  2 12  1  0  0  0  0
 12 13  2  0  0  0  0
  2 14  1  0  0  0  0
 10 15  1  0  0  0  0
 12 16  1  0  0  0  0
  3 17  1  0  0  0  0
  3 18  1  0  0  0  0
  4 19  1  0  0  0  0
  4 20  1  0  0  0  0
  5 21  1  0  0  0  0
  6 22  1  0  0  0  0
  7 23  1  0  0  0  0
  7 24  1  0  0  0  0
  9 25  1  0  0  0  0
 10 26  1  0  0  0  0
 10 27  1  0  0  0  0
 11 28  1  0  0  0  0
 11 29  1  0  0  0  0
 13 30  1  0  0  0  0
 13 31  1  0  0  0  0
 15 32  1  0  0  0  0
 16 33  1  0  0  0  0
 16 34  1  0  0  0  0
 16 35  1  0  0  0  0
M  END
