 xtb: 6.7.1 (edcfbbe)
          08092618423D

 35 36  0     0  0            999 V2000
    0.0969   -0.7007   -0.2951 c   0  0  0  0  0  0  0  0  0  0  0  0
    0.5964    0.6201   -0.9499 c   0  0  0  0  0  0  0  0  0  0  0  0
   -0.4914    1.7070   -0.8550 c   0  0  0  0  0  0  0  0  0  0  0  0
   -1.2183    1.7539    0.4879 c   0  0  0  0  0  0  0  0  0  0  0  0
   -1.6650    0.3475    0.9030 c   0  0  0  0  0  0  0  0  0  0  0  0
   -0.4258   -0.5172    1.1470 c   0  0  0  0  0  0  0  0  0  0  0  0
   -1.2140   -1.1177   -0.9945 c   0  0  0  0  0  0  0  0  0  0  0  0
   -2.2985   -0.3635   -0.2636 c   0  0  0  0  0  0  0  0  0  0  0  0
    0.4576    0.0363    2.0915 o   0  0  0  0  0  0  0  0  0  0  0  0
    1.1817   -1.7863   -0.3813 c   0  0  0  0  0  0  0  0  0  0  0  0
   -3.5774   -0.3343   -0.5914 c   0  0  0  0  0  0  0  0  0  0  0  0
    1.9717    1.0986   -0.5186 c   0  0  0  0  0  0  0  0  0  0  0  0
    3.0446    0.6864   -1.1825 c   0  0  0  0  0  0  0  0  0  0  0  0
    0.7081    0.3760   -2.0147 h   0  0  0  0  0  0  0  0  0  0  0  0
    0.8669   -2.9713    0.3210 o   0  0  0  0  0  0  0  0  0  0  0  0
    2.1150    2.0896    0.5959 c   0  0  0  0  0  0  0  0  0  0  0  0
   -0.0490    2.6795   -1.0742 h   0  0  0  0  0  0  0  0  0  0  0  0
   -1.2354    1.5150   -1.6311 h   0  0  0  0  0  0  0  0  0  0  0  0
   -0.5777    2.1537    1.2720 h   0  0  0  0  0  0  0  0  0  0  0  0
   -2.0929    2.4009    0.3963 h   0  0  0  0  0  0  0  0  0  0  0  0
   -2.3136    0.4009    1.7790 h   0  0  0  0  0  0  0  0  0  0  0  0
   -0.7506   -1.5058    1.5120 h   0  0  0  0  0  0  0  0  0  0  0  0
   -1.2053   -0.8998   -2.0627 h   0  0  0  0  0  0  0  0  0  0  0  0
   -1.3890   -2.1917   -0.8815 h   0  0  0  0  0  0  0  0  0  0  0  0
    1.1835   -0.5875    2.2134 h   0  0  0  0  0  0  0  0  0  0  0  0
    2.1053   -1.4227    0.0750 h   0  0  0  0  0  0  0  0  0  0  0  0
    1.3883   -2.0134   -1.4354 h   0  0  0  0  0  0  0  0  0  0  0  0
   -3.9556   -0.8586   -1.4535 h   0  0  0  0  0  0  0  0  0  0  0  0
   -4.2970    0.2180   -0.0117 h   0  0  0  0  0  0  0  0  0  0  0  0
    4.0362    1.0143   -0.9173 h   0  0  0  0  0  0  0  0  0  0  0  0
    2.9846    0.0030   -2.0134 h   0  0  0  0  0  0  0  0  0  0  0  0
    0.1014   -3.3872   -0.0961 h   0  0  0  0  0  0  0  0  0  0  0  0
    1.6197    1.7359    1.4948 h   0  0  0  0  0  0  0  0  0  0  0  0
    3.1669    2.2579    0.8144 h   0  0  0  0  0  0  0  0  0  0  0  0
    1.6698    3.0436    0.3176 h   0  0  0  0  0  0  0  0  0  0  0  0
  1  2  1  0  0  0  0
  2  3  1  0  0  0  0
  3  4  1  0  0  0  0
  4  5  1  0  0  0  0
  1  6  1  0  0  0  0
  5  6  1  0  0  0  0
  1  7  1  0  0  0  0
  5  8  1  0  0  0  0
  7  8  1  0  0  0  0
  6  9  1  0  0  0  0
  1 10  1  0  0  0  0
  8 11  2  0  0  0  0
  2 12  1  0  0  0  0
 12 13  2  0  0  0  0
  2 14  1  0  0  0  0
 10 15  1  0  0  0  0
 12 16  1  0  0  0  0
  3 17  1  0  0  0  0
  3 18  1  0  0  0  0
  4 19  1  0  0  0  0
  4 20  1  0  0  0  0
  5 21  1  0  0  0  0
  6 22  1  0  0  0  0
  7 23  1  0  0  0  0
  7 24  1  0  0  0  0
  9 25  1  0  0  0  0
 10 26  1  0  0  0  0
 10 27  1  0  0  0  0
 11 28  1  0  0  0  0
 11 29  1  0  0  0  0
 13 30  1  0  0  0  0
 13 31  1  0  0  0  0
 15 32  1  0  0  0  0
 16 33  1  0  0  0  0
 16 34  1  0  0  0  0
 16 35  1  0  0  0  0
M  END
