 xtb: 6.7.1 (edcfbbe)
          08092601433D

 42 44  0     0  0            999 V2000
   -0.6526    1.5557    0.1109 c   0  0  0  0  0  0  0  0  0  0  0  0
   -1.2545    1.0550   -1.2132 c   0  0  0  0  0  0  0  0  0  0  0  0
   -2.5013    0.1765   -1.1498 c   0  0  0  0  0  0  0  0  0  0  0  0
   -2.1773   -1.2923   -0.9156 c   0  0  0  0  0  0  0  0  0  0  0  0
   -1.6181   -1.5799    0.4742 c   0  0  0  0  0  0  0  0  0  0  0  0
   -0.2099   -1.0213    0.6977 c   0  0  0  0  0  0  0  0  0  0  0  0
   -0.0202    0.4671    1.0166 c   0  0  0  0  0  0  0  0  0  0  0  0
    0.5176    2.5107   -0.2554 c   0  0  0  0  0  0  0  0  0  0  0  0
    1.7662    2.0354    0.4885 c   0  0  0  0  0  0  0  0  0  0  0  0
    1.5053    0.5807    0.8606 c   0  0  0  0  0  0  0  0  0  0  0  0
    0.6560   -1.2656   -0.3925 o   0  0  0  0  0  0  0  0  0  0  0  0
    1.8692   -0.5459   -0.1574 c   0  0  0  0  0  0  0  0  0  0  0  0
   -0.3214    0.6556    2.0493 h   0  0  0  0  0  0  0  0  0  0  0  0
    2.0060    0.3457    1.8034 h   0  0  0  0  0  0  0  0  0  0  0  0
    0.1897   -1.5528    1.5849 h   0  0  0  0  0  0  0  0  0  0  0  0
   -1.5941   -3.0918    0.7091 c   0  0  0  0  0  0  0  0  0  0  0  0
    2.3969   -0.0726   -1.5107 c   0  0  0  0  0  0  0  0  0  0  0  0
    2.9063   -1.4941    0.4647 c   0  0  0  0  0  0  0  0  0  0  0  0
   -1.7058    2.3252    0.9149 c   0  0  0  0  0  0  0  0  0  0  0  0
   -1.4993    1.9488   -1.7956 h   0  0  0  0  0  0  0  0  0  0  0  0
   -0.4892    0.5014   -1.7574 h   0  0  0  0  0  0  0  0  0  0  0  0
   -3.1911    0.5308   -0.3832 h   0  0  0  0  0  0  0  0  0  0  0  0
   -3.0175    0.2586   -2.1102 h   0  0  0  0  0  0  0  0  0  0  0  0
   -1.4507   -1.6299   -1.6559 h   0  0  0  0  0  0  0  0  0  0  0  0
   -3.0905   -1.8787   -1.0460 h   0  0  0  0  0  0  0  0  0  0  0  0
   -2.2681   -1.1173    1.2266 h   0  0  0  0  0  0  0  0  0  0  0  0
    0.2746    3.5395    0.0100 h   0  0  0  0  0  0  0  0  0  0  0  0
    0.6919    2.4930   -1.3311 h   0  0  0  0  0  0  0  0  0  0  0  0
    2.6716    2.1656   -0.1009 h   0  0  0  0  0  0  0  0  0  0  0  0
    1.8877    2.6049    1.4120 h   0  0  0  0  0  0  0  0  0  0  0  0
   -1.2708   -3.3236    1.7219 h   0  0  0  0  0  0  0  0  0  0  0  0
   -2.5838   -3.5177    0.5602 h   0  0  0  0  0  0  0  0  0  0  0  0
   -0.9043   -3.5579    0.0102 h   0  0  0  0  0  0  0  0  0  0  0  0
    3.3898    0.3557   -1.4043 h   0  0  0  0  0  0  0  0  0  0  0  0
    2.4552   -0.9310   -2.1755 h   0  0  0  0  0  0  0  0  0  0  0  0
    1.7353    0.6599   -1.9597 h   0  0  0  0  0  0  0  0  0  0  0  0
    2.5184   -1.9359    1.3799 h   0  0  0  0  0  0  0  0  0  0  0  0
    3.1338   -2.2973   -0.2317 h   0  0  0  0  0  0  0  0  0  0  0  0
    3.8208   -0.9533    0.6952 h   0  0  0  0  0  0  0  0  0  0  0  0
   -2.4614    1.6548    1.3172 h   0  0  0  0  0  0  0  0  0  0  0  0
   -1.2372    2.8411    1.7508 h   0  0  0  0  0  0  0  0  0  0  0  0
   -2.1998    3.0643    0.2872 h   0  0  0  0  0  0  0  0  0  0  0  0
  1  2  1  0  0  0  0
  2  3  1  0  0  0  0
  3  4  1  0  0  0  0
  4  5  1  0  0  0  0
  5  6  1  0  0  0  0
  1  7  1  0  0  0  0
  6  7  1  0  0  0  0
  1  8  1  0  0  0  0
  8  9  1  0  0  0  0
  7 10  1  0  0  0  0
  9 10  1  0  0  0  0
  6 11  1  0  0  0  0
 10 12  1  0  0  0  0
 11 12  1  0  0  0  0
  7 13  1  0  0  0  0
 10 14  1  0  0  0  0
  6 15  1  0  0  0  0
  5 16  1  0  0  0  0
 12 17  1  0  0  0  0
 12 18  1  0  0  0  0
  1 19  1  0  0  0  0
  2 20  1  0  0  0  0
  2 21  1  0  0  0  0
  3 22  1  0  0  0  0
  3 23  1  0  0  0  0
  4 24  1  0  0  0  0
  4 25  1  0  0  0  0
  5 26  1  0  0  0  0
  8 27  1  0  0  0  0
  8 28  1  0  0  0  0
  9 29  1  0  0  0  0
  9 30  1  0  0  0  0
 16 31  1  0  0  0  0
 16 32  1  0  0  0  0
 16 33  1  0  0  0  0
 17 34  1  0  0  0  0
 17 35  1  0  0  0  0
 17 36  1  0  0  0  0
 18 37  1  0  0  0  0
 18 38  1  0  0  0  0
 18 39  1  0  0  0  0
 19 40  1  0  0  0  0
 19 41  1  0  0  0  0
 19 42  1  0  0  0  0
M  END
