 xtb: 6.7.1 (edcfbbe)
          08092615283D

 35 36  0     0  0            999 V2000
    0.0829   -0.6194    0.0992 c   0  0  0  0  0  0  0  0  0  0  0  0
   -0.9468    0.4019    0.6526 c   0  0  0  0  0  0  0  0  0  0  0  0
   -0.3245    1.8122    0.7428 c   0  0  0  0  0  0  0  0  0  0  0  0
    0.5740    2.2063   -0.4299 c   0  0  0  0  0  0  0  0  0  0  0  0
    1.4945    1.0456   -0.8188 c   0  0  0  0  0  0  0  0  0  0  0  0
    0.6261   -0.1379   -1.2557 c   0  0  0  0  0  0  0  0  0  0  0  0
    1.3529   -0.5995    0.9724 c   0  0  0  0  0  0  0  0  0  0  0  0
    2.1938    0.5113    0.4055 c   0  0  0  0  0  0  0  0  0  0  0  0
    1.3837   -1.1741   -1.8598 o   0  0  0  0  0  0  0  0  0  0  0  0
   -0.5049   -2.0316   -0.0058 c   0  0  0  0  0  0  0  0  0  0  0  0
    3.3455    0.9441    0.8852 c   0  0  0  0  0  0  0  0  0  0  0  0
   -2.2914    0.3908   -0.0516 c   0  0  0  0  0  0  0  0  0  0  0  0
   -2.5547    1.0048   -1.1956 c   0  0  0  0  0  0  0  0  0  0  0  0
   -1.1464    0.0983    1.6878 h   0  0  0  0  0  0  0  0  0  0  0  0
   -0.7935   -2.6202    1.2438 o   0  0  0  0  0  0  0  0  0  0  0  0
   -3.3931   -0.3210    0.6858 c   0  0  0  0  0  0  0  0  0  0  0  0
   -1.1276    2.5443    0.8481 h   0  0  0  0  0  0  0  0  0  0  0  0
    0.2799    1.8560    1.6508 h   0  0  0  0  0  0  0  0  0  0  0  0
   -0.0162    2.5005   -1.2985 h   0  0  0  0  0  0  0  0  0  0  0  0
    1.1784    3.0668   -0.1361 h   0  0  0  0  0  0  0  0  0  0  0  0
    2.1947    1.3621   -1.5968 h   0  0  0  0  0  0  0  0  0  0  0  0
   -0.1791    0.1555   -1.9391 h   0  0  0  0  0  0  0  0  0  0  0  0
    1.8769   -1.5516    0.8644 h   0  0  0  0  0  0  0  0  0  0  0  0
    1.1360   -0.4614    2.0313 h   0  0  0  0  0  0  0  0  0  0  0  0
    1.8862   -0.7908   -2.5896 h   0  0  0  0  0  0  0  0  0  0  0  0
    0.2305   -2.6874   -0.4758 h   0  0  0  0  0  0  0  0  0  0  0  0
   -1.3990   -2.0111   -0.6441 h   0  0  0  0  0  0  0  0  0  0  0  0
    3.7832    0.5225    1.7745 h   0  0  0  0  0  0  0  0  0  0  0  0
    3.8978    1.7366    0.4083 h   0  0  0  0  0  0  0  0  0  0  0  0
   -3.5424    0.9752   -1.6268 h   0  0  0  0  0  0  0  0  0  0  0  0
   -1.8266    1.5636   -1.7532 h   0  0  0  0  0  0  0  0  0  0  0  0
   -1.3856   -2.0279    1.7265 h   0  0  0  0  0  0  0  0  0  0  0  0
   -3.4901    0.0798    1.6950 h   0  0  0  0  0  0  0  0  0  0  0  0
   -4.3435   -0.1948    0.1731 h   0  0  0  0  0  0  0  0  0  0  0  0
   -3.1943   -1.3888    0.7659 h   0  0  0  0  0  0  0  0  0  0  0  0
  1  2  1  0  0  0  0
  2  3  1  0  0  0  0
  3  4  1  0  0  0  0
  4  5  1  0  0  0  0
  1  6  1  0  0  0  0
  5  6  1  0  0  0  0
  1  7  1  0  0  0  0
  5  8  1  0  0  0  0
  7  8  1  0  0  0  0
  6  9  1  0  0  0  0
  1 10  1  0  0  0  0
  8 11  2  0  0  0  0
  2 12  1  0  0  0  0
 12 13  2  0  0  0  0
  2 14  1  0  0  0  0
 10 15  1  0  0  0  0
 12 16  1  0  0  0  0
  3 17  1  0  0  0  0
  3 18  1  0  0  0  0
  4 19  1  0  0  0  0
  4 20  1  0  0  0  0
  5 21  1  0  0  0  0
  6 22  1  0  0  0  0
  7 23  1  0  0  0  0
  7 24  1  0  0  0  0
  9 25  1  0  0  0  0
 10 26  1  0  0  0  0
 10 27  1  0  0  0  0
 11 28  1  0  0  0  0
 11 29  1  0  0  0  0
 13 30  1  0  0  0  0
 13 31  1  0  0  0  0
 15 32  1  0  0  0  0
 16 33  1  0  0  0  0
 16 34  1  0  0  0  0
 16 35  1  0  0  0  0
M  END
