 xtb: 6.7.1 (edcfbbe)
          08092616283D

 35 36  0     0  0            999 V2000
    0.0925   -0.6174    0.0959 c   0  0  0  0  0  0  0  0  0  0  0  0
   -0.9361    0.3998    0.6527 c   0  0  0  0  0  0  0  0  0  0  0  0
   -0.3234    1.8121    0.7422 c   0  0  0  0  0  0  0  0  0  0  0  0
    0.5740    2.2075   -0.4312 c   0  0  0  0  0  0  0  0  0  0  0  0
    1.5011    1.0503   -0.8150 c   0  0  0  0  0  0  0  0  0  0  0  0
    0.6380   -0.1345   -1.2567 c   0  0  0  0  0  0  0  0  0  0  0  0
    1.3602   -0.6007    0.9708 c   0  0  0  0  0  0  0  0  0  0  0  0
    2.1956    0.5186    0.4133 c   0  0  0  0  0  0  0  0  0  0  0  0
    1.3991   -1.1699   -1.8607 o   0  0  0  0  0  0  0  0  0  0  0  0
   -0.5027   -2.0217   -0.0157 c   0  0  0  0  0  0  0  0  0  0  0  0
    3.3418    0.9584    0.9002 c   0  0  0  0  0  0  0  0  0  0  0  0
   -2.2768    0.3661   -0.0529 c   0  0  0  0  0  0  0  0  0  0  0  0
   -2.5562    0.9662   -1.2005 c   0  0  0  0  0  0  0  0  0  0  0  0
   -1.1338    0.0726    1.6791 h   0  0  0  0  0  0  0  0  0  0  0  0
   -0.9041   -2.4797    1.2650 o   0  0  0  0  0  0  0  0  0  0  0  0
   -3.3512   -0.3629    0.7027 c   0  0  0  0  0  0  0  0  0  0  0  0
   -1.1311    2.5393    0.8438 h   0  0  0  0  0  0  0  0  0  0  0  0
    0.2783    1.8614    1.6516 h   0  0  0  0  0  0  0  0  0  0  0  0
   -0.0184    2.4935   -1.3011 h   0  0  0  0  0  0  0  0  0  0  0  0
    1.1736    3.0729   -0.1415 h   0  0  0  0  0  0  0  0  0  0  0  0
    2.2045    1.3690   -1.5896 h   0  0  0  0  0  0  0  0  0  0  0  0
   -0.1659    0.1579   -1.9419 h   0  0  0  0  0  0  0  0  0  0  0  0
    1.8935   -1.5468    0.8557 h   0  0  0  0  0  0  0  0  0  0  0  0
    1.1326   -0.4752    2.0283 h   0  0  0  0  0  0  0  0  0  0  0  0
    1.9123   -0.7812   -2.5803 h   0  0  0  0  0  0  0  0  0  0  0  0
    0.2600   -2.6850   -0.4388 h   0  0  0  0  0  0  0  0  0  0  0  0
   -1.3609   -2.0002   -0.7014 h   0  0  0  0  0  0  0  0  0  0  0  0
    3.7767    0.5389    1.7918 h   0  0  0  0  0  0  0  0  0  0  0  0
    3.8908    1.7562    0.4284 h   0  0  0  0  0  0  0  0  0  0  0  0
   -3.5443    0.9100   -1.6290 h   0  0  0  0  0  0  0  0  0  0  0  0
   -1.8445    1.5442   -1.7605 h   0  0  0  0  0  0  0  0  0  0  0  0
   -1.1262   -3.4153    1.1957 h   0  0  0  0  0  0  0  0  0  0  0  0
   -3.6645    0.2411    1.5554 h   0  0  0  0  0  0  0  0  0  0  0  0
   -4.2204   -0.5501    0.0768 h   0  0  0  0  0  0  0  0  0  0  0  0
   -2.9749   -1.3051    1.0932 h   0  0  0  0  0  0  0  0  0  0  0  0
  1  2  1  0  0  0  0
  2  3  1  0  0  0  0
  3  4  1  0  0  0  0
  4  5  1  0  0  0  0
  1  6  1  0  0  0  0
  5  6  1  0  0  0  0
  1  7  1  0  0  0  0
  5  8  1  0  0  0  0
  7  8  1  0  0  0  0
  6  9  1  0  0  0  0
  1 10  1  0  0  0  0
  8 11  2  0  0  0  0
  2 12  1  0  0  0  0
 12 13  2  0  0  0  0
  2 14  1  0  0  0  0
 10 15  1  0  0  0  0
 12 16  1  0  0  0  0
  3 17  1  0  0  0  0
  3 18  1  0  0  0  0
  4 19  1  0  0  0  0
  4 20  1  0  0  0  0
  5 21  1  0  0  0  0
  6 22  1  0  0  0  0
  7 23  1  0  0  0  0
  7 24  1  0  0  0  0
  9 25  1  0  0  0  0
 10 26  1  0  0  0  0
 10 27  1  0  0  0  0
 11 28  1  0  0  0  0
 11 29  1  0  0  0  0
 13 30  1  0  0  0  0
 13 31  1  0  0  0  0
 15 32  1  0  0  0  0
 16 33  1  0  0  0  0
 16 34  1  0  0  0  0
 16 35  1  0  0  0  0
M  END
