 xtb: 6.7.1 (edcfbbe)
          08092617053D

 35 36  0     0  0            999 V2000
   -0.0429   -0.5539    0.3072 c   0  0  0  0  0  0  0  0  0  0  0  0
   -1.0294    0.5774    0.6995 c   0  0  0  0  0  0  0  0  0  0  0  0
   -0.3440    1.9581    0.6224 c   0  0  0  0  0  0  0  0  0  0  0  0
    0.5825    2.1579   -0.5769 c   0  0  0  0  0  0  0  0  0  0  0  0
    1.4469    0.9153   -0.8071 c   0  0  0  0  0  0  0  0  0  0  0  0
    0.5341   -0.2781   -1.0970 c   0  0  0  0  0  0  0  0  0  0  0  0
    1.2156   -0.4696    1.1915 c   0  0  0  0  0  0  0  0  0  0  0  0
    2.1195    0.5047    0.4813 c   0  0  0  0  0  0  0  0  0  0  0  0
    1.2579   -1.3701   -1.6472 o   0  0  0  0  0  0  0  0  0  0  0  0
   -0.7379   -1.9205    0.4193 c   0  0  0  0  0  0  0  0  0  0  0  0
    3.2993    0.9238    0.9024 c   0  0  0  0  0  0  0  0  0  0  0  0
   -2.3591    0.5317   -0.0289 c   0  0  0  0  0  0  0  0  0  0  0  0
   -2.5741    0.9758   -1.2583 c   0  0  0  0  0  0  0  0  0  0  0  0
   -1.2661    0.4078    1.7566 h   0  0  0  0  0  0  0  0  0  0  0  0
    0.1272   -3.0167    0.2213 o   0  0  0  0  0  0  0  0  0  0  0  0
   -3.5036    0.0098    0.7941 c   0  0  0  0  0  0  0  0  0  0  0  0
   -1.1137    2.7319    0.6203 h   0  0  0  0  0  0  0  0  0  0  0  0
    0.2502    2.0916    1.5285 h   0  0  0  0  0  0  0  0  0  0  0  0
    0.0142    2.3677   -1.4831 h   0  0  0  0  0  0  0  0  0  0  0  0
    1.2271    3.0184   -0.3860 h   0  0  0  0  0  0  0  0  0  0  0  0
    2.1580    1.0943   -1.6176 h   0  0  0  0  0  0  0  0  0  0  0  0
   -0.2459   -0.0713   -1.8298 h   0  0  0  0  0  0  0  0  0  0  0  0
    1.6829   -1.4567    1.2597 h   0  0  0  0  0  0  0  0  0  0  0  0
    0.9870   -0.1525    2.2090 h   0  0  0  0  0  0  0  0  0  0  0  0
    2.0968   -1.4367   -1.1702 h   0  0  0  0  0  0  0  0  0  0  0  0
   -1.5644   -1.9626   -0.3031 h   0  0  0  0  0  0  0  0  0  0  0  0
   -1.1398   -2.0486    1.4284 h   0  0  0  0  0  0  0  0  0  0  0  0
    3.7151    0.5976    1.8412 h   0  0  0  0  0  0  0  0  0  0  0  0
    3.8936    1.6150    0.3286 h   0  0  0  0  0  0  0  0  0  0  0  0
   -3.5570    0.9312   -1.6990 h   0  0  0  0  0  0  0  0  0  0  0  0
   -1.8117    1.4066   -1.8802 h   0  0  0  0  0  0  0  0  0  0  0  0
    0.5310   -2.8918   -0.6543 h   0  0  0  0  0  0  0  0  0  0  0  0
   -3.2778   -0.9726    1.2029 h   0  0  0  0  0  0  0  0  0  0  0  0
   -3.6877    0.6834    1.6316 h   0  0  0  0  0  0  0  0  0  0  0  0
   -4.4121   -0.0579    0.2014 h   0  0  0  0  0  0  0  0  0  0  0  0
  1  2  1  0  0  0  0
  2  3  1  0  0  0  0
  3  4  1  0  0  0  0
  4  5  1  0  0  0  0
  1  6  1  0  0  0  0
  5  6  1  0  0  0  0
  1  7  1  0  0  0  0
  5  8  1  0  0  0  0
  7  8  1  0  0  0  0
  6  9  1  0  0  0  0
  1 10  1  0  0  0  0
  8 11  2  0  0  0  0
  2 12  1  0  0  0  0
 12 13  2  0  0  0  0
  2 14  1  0  0  0  0
 10 15  1  0  0  0  0
 12 16  1  0  0  0  0
  3 17  1  0  0  0  0
  3 18  1  0  0  0  0
  4 19  1  0  0  0  0
  4 20  1  0  0  0  0
  5 21  1  0  0  0  0
  6 22  1  0  0  0  0
  7 23  1  0  0  0  0
  7 24  1  0  0  0  0
  9 25  1  0  0  0  0
 10 26  1  0  0  0  0
 10 27  1  0  0  0  0
 11 28  1  0  0  0  0
 11 29  1  0  0  0  0
 13 30  1  0  0  0  0
 13 31  1  0  0  0  0
 15 32  1  0  0  0  0
 16 33  1  0  0  0  0
 16 34  1  0  0  0  0
 16 35  1  0  0  0  0
M  END
