 xtb: 6.7.1 (edcfbbe)
          08092615283D

 35 36  0     0  0            999 V2000
    0.1262   -0.5747    0.4324 c   0  0  0  0  0  0  0  0  0  0  0  0
   -0.8952    0.5439    0.7571 c   0  0  0  0  0  0  0  0  0  0  0  0
   -0.3215    1.9453    0.4532 c   0  0  0  0  0  0  0  0  0  0  0  0
    0.5863    2.0416   -0.7750 c   0  0  0  0  0  0  0  0  0  0  0  0
    1.5402    0.8453   -0.8303 c   0  0  0  0  0  0  0  0  0  0  0  0
    0.6909   -0.4135   -0.9944 c   0  0  0  0  0  0  0  0  0  0  0  0
    1.3907   -0.3569    1.2840 c   0  0  0  0  0  0  0  0  0  0  0  0
    2.1992    0.6489    0.5090 c   0  0  0  0  0  0  0  0  0  0  0  0
    1.5021   -1.4981   -1.3824 o   0  0  0  0  0  0  0  0  0  0  0  0
   -0.4932   -1.9598    0.6607 c   0  0  0  0  0  0  0  0  0  0  0  0
    3.2925    1.2575    0.9288 c   0  0  0  0  0  0  0  0  0  0  0  0
   -2.2787    0.3207    0.1852 c   0  0  0  0  0  0  0  0  0  0  0  0
   -3.2663   -0.0400    0.9937 c   0  0  0  0  0  0  0  0  0  0  0  0
   -1.0317    0.5007    1.8458 h   0  0  0  0  0  0  0  0  0  0  0  0
   -1.2106   -2.3596   -0.4934 o   0  0  0  0  0  0  0  0  0  0  0  0
   -2.5451    0.5251   -1.2747 c   0  0  0  0  0  0  0  0  0  0  0  0
   -1.1487    2.6524    0.3598 h   0  0  0  0  0  0  0  0  0  0  0  0
    0.2686    2.2536    1.3187 h   0  0  0  0  0  0  0  0  0  0  0  0
    0.0056    2.0730   -1.6986 h   0  0  0  0  0  0  0  0  0  0  0  0
    1.1600    2.9687   -0.7132 h   0  0  0  0  0  0  0  0  0  0  0  0
    2.2619    0.9555   -1.6404 h   0  0  0  0  0  0  0  0  0  0  0  0
   -0.0988   -0.2693   -1.7363 h   0  0  0  0  0  0  0  0  0  0  0  0
    1.9581   -1.2882    1.3512 h   0  0  0  0  0  0  0  0  0  0  0  0
    1.1673   -0.0252    2.2985 h   0  0  0  0  0  0  0  0  0  0  0  0
    0.9215   -2.2616   -1.4762 h   0  0  0  0  0  0  0  0  0  0  0  0
   -1.1542   -1.9223    1.5343 h   0  0  0  0  0  0  0  0  0  0  0  0
    0.3024   -2.6919    0.8669 h   0  0  0  0  0  0  0  0  0  0  0  0
    3.7011    1.0799    1.9095 h   0  0  0  0  0  0  0  0  0  0  0  0
    3.8270    1.9540    0.3058 h   0  0  0  0  0  0  0  0  0  0  0  0
   -4.2681   -0.1988    0.6303 h   0  0  0  0  0  0  0  0  0  0  0  0
   -3.1231   -0.1943    2.0508 h   0  0  0  0  0  0  0  0  0  0  0  0
   -1.8300   -3.0548   -0.2542 h   0  0  0  0  0  0  0  0  0  0  0  0
   -2.0587    1.4225   -1.6463 h   0  0  0  0  0  0  0  0  0  0  0  0
   -2.1808   -0.3301   -1.8415 h   0  0  0  0  0  0  0  0  0  0  0  0
   -3.6151    0.6117   -1.4506 h   0  0  0  0  0  0  0  0  0  0  0  0
  1  2  1  0  0  0  0
  2  3  1  0  0  0  0
  3  4  1  0  0  0  0
  4  5  1  0  0  0  0
  1  6  1  0  0  0  0
  5  6  1  0  0  0  0
  1  7  1  0  0  0  0
  5  8  1  0  0  0  0
  7  8  1  0  0  0  0
  6  9  1  0  0  0  0
  1 10  1  0  0  0  0
  8 11  2  0  0  0  0
  2 12  1  0  0  0  0
 12 13  2  0  0  0  0
  2 14  1  0  0  0  0
 10 15  1  0  0  0  0
 12 16  1  0  0  0  0
  3 17  1  0  0  0  0
  3 18  1  0  0  0  0
  4 19  1  0  0  0  0
  4 20  1  0  0  0  0
  5 21  1  0  0  0  0
  6 22  1  0  0  0  0
  7 23  1  0  0  0  0
  7 24  1  0  0  0  0
  9 25  1  0  0  0  0
 10 26  1  0  0  0  0
 10 27  1  0  0  0  0
 11 28  1  0  0  0  0
 11 29  1  0  0  0  0
 13 30  1  0  0  0  0
 13 31  1  0  0  0  0
 15 32  1  0  0  0  0
 16 33  1  0  0  0  0
 16 34  1  0  0  0  0
 16 35  1  0  0  0  0
M  END
