 xtb: 6.7.1 (edcfbbe)
          08092601523D

 42 44  0     0  0            999 V2000
    0.9845    1.5882   -0.1243 c   0  0  0  0  0  0  0  0  0  0  0  0
    2.3116    1.0763    0.4545 c   0  0  0  0  0  0  0  0  0  0  0  0
    2.9609   -0.0626   -0.3413 c   0  0  0  0  0  0  0  0  0  0  0  0
    2.5331   -1.4613    0.1047 c   0  0  0  0  0  0  0  0  0  0  0  0
    1.1011   -1.8637   -0.2564 c   0  0  0  0  0  0  0  0  0  0  0  0
    0.0959   -0.8445    0.2904 c   0  0  0  0  0  0  0  0  0  0  0  0
    0.0309    0.4542   -0.5246 c   0  0  0  0  0  0  0  0  0  0  0  0
    0.1844    2.4232    0.9099 c   0  0  0  0  0  0  0  0  0  0  0  0
   -1.1710    1.7306    1.0976 c   0  0  0  0  0  0  0  0  0  0  0  0
   -1.3828    0.9377   -0.1952 c   0  0  0  0  0  0  0  0  0  0  0  0
   -1.2239   -1.3739    0.2687 o   0  0  0  0  0  0  0  0  0  0  0  0
   -2.1798   -0.3737   -0.0945 c   0  0  0  0  0  0  0  0  0  0  0  0
    0.1372    0.2049   -1.5829 h   0  0  0  0  0  0  0  0  0  0  0  0
   -1.7970    1.5859   -0.9692 h   0  0  0  0  0  0  0  0  0  0  0  0
    0.3578   -0.6317    1.3377 h   0  0  0  0  0  0  0  0  0  0  0  0
    0.8034   -3.2557    0.2979 c   0  0  0  0  0  0  0  0  0  0  0  0
   -2.7722   -0.7388   -1.4637 c   0  0  0  0  0  0  0  0  0  0  0  0
   -3.3029   -0.3513    0.9441 c   0  0  0  0  0  0  0  0  0  0  0  0
    1.2723    2.4567   -1.3546 c   0  0  0  0  0  0  0  0  0  0  0  0
    3.0018    1.9229    0.4933 h   0  0  0  0  0  0  0  0  0  0  0  0
    2.1632    0.7398    1.4821 h   0  0  0  0  0  0  0  0  0  0  0  0
    2.7590    0.0560   -1.4062 h   0  0  0  0  0  0  0  0  0  0  0  0
    4.0439    0.0047   -0.2099 h   0  0  0  0  0  0  0  0  0  0  0  0
    2.6562   -1.5381    1.1883 h   0  0  0  0  0  0  0  0  0  0  0  0
    3.2095   -2.1895   -0.3502 h   0  0  0  0  0  0  0  0  0  0  0  0
    0.9982   -1.8982   -1.3469 h   0  0  0  0  0  0  0  0  0  0  0  0
    0.0363    3.4343    0.5297 h   0  0  0  0  0  0  0  0  0  0  0  0
    0.7184    2.5068    1.8562 h   0  0  0  0  0  0  0  0  0  0  0  0
   -1.1236    1.0503    1.9468 h   0  0  0  0  0  0  0  0  0  0  0  0
   -1.9735    2.4439    1.2809 h   0  0  0  0  0  0  0  0  0  0  0  0
    0.9116   -3.2615    1.3801 h   0  0  0  0  0  0  0  0  0  0  0  0
   -0.2161   -3.5391    0.0561 h   0  0  0  0  0  0  0  0  0  0  0  0
    1.4882   -3.9875   -0.1253 h   0  0  0  0  0  0  0  0  0  0  0  0
   -3.1755   -1.7472   -1.4231 h   0  0  0  0  0  0  0  0  0  0  0  0
   -2.0040   -0.7090   -2.2322 h   0  0  0  0  0  0  0  0  0  0  0  0
   -3.5686   -0.0484   -1.7294 h   0  0  0  0  0  0  0  0  0  0  0  0
   -2.9012   -0.2480    1.9473 h   0  0  0  0  0  0  0  0  0  0  0  0
   -3.9809    0.4742    0.7438 h   0  0  0  0  0  0  0  0  0  0  0  0
   -3.8555   -1.2858    0.8971 h   0  0  0  0  0  0  0  0  0  0  0  0
    1.8499    3.3343   -1.0708 h   0  0  0  0  0  0  0  0  0  0  0  0
    1.8400    1.9061   -2.1010 h   0  0  0  0  0  0  0  0  0  0  0  0
    0.3429    2.7889   -1.8115 h   0  0  0  0  0  0  0  0  0  0  0  0
  1  2  1  0  0  0  0
  2  3  1  0  0  0  0
  3  4  1  0  0  0  0
  4  5  1  0  0  0  0
  5  6  1  0  0  0  0
  1  7  1  0  0  0  0
  6  7  1  0  0  0  0
  1  8  1  0  0  0  0
  8  9  1  0  0  0  0
  7 10  1  0  0  0  0
  9 10  1  0  0  0  0
  6 11  1  0  0  0  0
 10 12  1  0  0  0  0
 11 12  1  0  0  0  0
  7 13  1  0  0  0  0
 10 14  1  0  0  0  0
  6 15  1  0  0  0  0
  5 16  1  0  0  0  0
 12 17  1  0  0  0  0
 12 18  1  0  0  0  0
  1 19  1  0  0  0  0
  2 20  1  0  0  0  0
  2 21  1  0  0  0  0
  3 22  1  0  0  0  0
  3 23  1  0  0  0  0
  4 24  1  0  0  0  0
  4 25  1  0  0  0  0
  5 26  1  0  0  0  0
  8 27  1  0  0  0  0
  8 28  1  0  0  0  0
  9 29  1  0  0  0  0
  9 30  1  0  0  0  0
 16 31  1  0  0  0  0
 16 32  1  0  0  0  0
 16 33  1  0  0  0  0
 17 34  1  0  0  0  0
 17 35  1  0  0  0  0
 17 36  1  0  0  0  0
 18 37  1  0  0  0  0
 18 38  1  0  0  0  0
 18 39  1  0  0  0  0
 19 40  1  0  0  0  0
 19 41  1  0  0  0  0
 19 42  1  0  0  0  0
M  END
