 xtb: 6.7.1 (edcfbbe)
          08092616293D

 35 36  0     0  0            999 V2000
    0.1540   -0.6081    0.3829 c   0  0  0  0  0  0  0  0  0  0  0  0
   -0.8932    0.4772    0.7508 c   0  0  0  0  0  0  0  0  0  0  0  0
   -0.3382    1.8986    0.5135 c   0  0  0  0  0  0  0  0  0  0  0  0
    0.5274    2.0535   -0.7366 c   0  0  0  0  0  0  0  0  0  0  0  0
    1.5198    0.8920   -0.8421 c   0  0  0  0  0  0  0  0  0  0  0  0
    0.7246   -0.4038   -1.0309 c   0  0  0  0  0  0  0  0  0  0  0  0
    1.4156   -0.3707    1.2399 c   0  0  0  0  0  0  0  0  0  0  0  0
    2.2041    0.6642    0.4820 c   0  0  0  0  0  0  0  0  0  0  0  0
    1.5618   -1.5031   -1.3507 o   0  0  0  0  0  0  0  0  0  0  0  0
   -0.3916   -2.0286    0.6003 c   0  0  0  0  0  0  0  0  0  0  0  0
    3.3073    1.2625    0.8931 c   0  0  0  0  0  0  0  0  0  0  0  0
   -2.2835    0.2997    0.1731 c   0  0  0  0  0  0  0  0  0  0  0  0
   -3.2745   -0.0868    0.9710 c   0  0  0  0  0  0  0  0  0  0  0  0
   -1.0275    0.3755    1.8350 h   0  0  0  0  0  0  0  0  0  0  0  0
   -1.3957   -2.4228   -0.3065 o   0  0  0  0  0  0  0  0  0  0  0  0
   -2.5615    0.6158   -1.2665 c   0  0  0  0  0  0  0  0  0  0  0  0
   -1.1709    2.6042    0.4804 h   0  0  0  0  0  0  0  0  0  0  0  0
    0.2759    2.1669    1.3749 h   0  0  0  0  0  0  0  0  0  0  0  0
   -0.0797    2.0794   -1.6427 h   0  0  0  0  0  0  0  0  0  0  0  0
    1.0721    2.9976   -0.6727 h   0  0  0  0  0  0  0  0  0  0  0  0
    2.2291    1.0692   -1.6550 h   0  0  0  0  0  0  0  0  0  0  0  0
   -0.0509   -0.3106   -1.7974 h   0  0  0  0  0  0  0  0  0  0  0  0
    1.9952   -1.2945    1.2959 h   0  0  0  0  0  0  0  0  0  0  0  0
    1.1829   -0.0575    2.2572 h   0  0  0  0  0  0  0  0  0  0  0  0
    1.9991   -1.3140   -2.1896 h   0  0  0  0  0  0  0  0  0  0  0  0
   -0.7548   -2.1195    1.6339 h   0  0  0  0  0  0  0  0  0  0  0  0
    0.4206   -2.7429    0.4484 h   0  0  0  0  0  0  0  0  0  0  0  0
    3.7375    1.0570    1.8590 h   0  0  0  0  0  0  0  0  0  0  0  0
    3.8253    1.9814    0.2807 h   0  0  0  0  0  0  0  0  0  0  0  0
   -4.2839   -0.2014    0.6104 h   0  0  0  0  0  0  0  0  0  0  0  0
   -3.1231   -0.3085    2.0147 h   0  0  0  0  0  0  0  0  0  0  0  0
   -2.1626   -1.8443   -0.1715 h   0  0  0  0  0  0  0  0  0  0  0  0
   -2.2060    1.6110   -1.5211 h   0  0  0  0  0  0  0  0  0  0  0  0
   -2.0743   -0.1007   -1.9255 h   0  0  0  0  0  0  0  0  0  0  0  0
   -3.6316    0.5742   -1.4580 h   0  0  0  0  0  0  0  0  0  0  0  0
  1  2  1  0  0  0  0
  2  3  1  0  0  0  0
  3  4  1  0  0  0  0
  4  5  1  0  0  0  0
  1  6  1  0  0  0  0
  5  6  1  0  0  0  0
  1  7  1  0  0  0  0
  5  8  1  0  0  0  0
  7  8  1  0  0  0  0
  6  9  1  0  0  0  0
  1 10  1  0  0  0  0
  8 11  2  0  0  0  0
  2 12  1  0  0  0  0
 12 13  2  0  0  0  0
  2 14  1  0  0  0  0
 10 15  1  0  0  0  0
 12 16  1  0  0  0  0
  3 17  1  0  0  0  0
  3 18  1  0  0  0  0
  4 19  1  0  0  0  0
  4 20  1  0  0  0  0
  5 21  1  0  0  0  0
  6 22  1  0  0  0  0
  7 23  1  0  0  0  0
  7 24  1  0  0  0  0
  9 25  1  0  0  0  0
 10 26  1  0  0  0  0
 10 27  1  0  0  0  0
 11 28  1  0  0  0  0
 11 29  1  0  0  0  0
 13 30  1  0  0  0  0
 13 31  1  0  0  0  0
 15 32  1  0  0  0  0
 16 33  1  0  0  0  0
 16 34  1  0  0  0  0
 16 35  1  0  0  0  0
M  END
