 xtb: 6.7.1 (edcfbbe)
          08092615283D

 35 36  0     0  0            999 V2000
    0.0883   -0.6508    0.0811 c   0  0  0  0  0  0  0  0  0  0  0  0
   -0.9499    0.3119    0.7190 c   0  0  0  0  0  0  0  0  0  0  0  0
   -0.3443    1.7145    0.9008 c   0  0  0  0  0  0  0  0  0  0  0  0
    0.4760    2.2054   -0.2925 c   0  0  0  0  0  0  0  0  0  0  0  0
    1.4277    1.1045   -0.7716 c   0  0  0  0  0  0  0  0  0  0  0  0
    0.5985   -0.0902   -1.2553 c   0  0  0  0  0  0  0  0  0  0  0  0
    1.3825   -0.6439    0.9224 c   0  0  0  0  0  0  0  0  0  0  0  0
    2.1720    0.5291    0.4054 c   0  0  0  0  0  0  0  0  0  0  0  0
    1.3876   -1.0685   -1.9021 o   0  0  0  0  0  0  0  0  0  0  0  0
   -0.4737   -2.0704   -0.0676 c   0  0  0  0  0  0  0  0  0  0  0  0
    3.3151    0.9768    0.8899 c   0  0  0  0  0  0  0  0  0  0  0  0
   -2.3079    0.3077    0.0407 c   0  0  0  0  0  0  0  0  0  0  0  0
   -3.2271   -0.5620    0.4364 c   0  0  0  0  0  0  0  0  0  0  0  0
   -1.1334   -0.0931    1.7214 h   0  0  0  0  0  0  0  0  0  0  0  0
   -0.8291   -2.6570    1.1624 o   0  0  0  0  0  0  0  0  0  0  0  0
   -2.6367    1.3081   -1.0292 c   0  0  0  0  0  0  0  0  0  0  0  0
   -1.1401    2.4266    1.1261 h   0  0  0  0  0  0  0  0  0  0  0  0
    0.3154    1.6929    1.7706 h   0  0  0  0  0  0  0  0  0  0  0  0
   -0.1686    2.5039   -1.1198 h   0  0  0  0  0  0  0  0  0  0  0  0
    1.0561    3.0798    0.0109 h   0  0  0  0  0  0  0  0  0  0  0  0
    2.0981    1.4919   -1.5447 h   0  0  0  0  0  0  0  0  0  0  0  0
   -0.2184    0.2099   -1.9226 h   0  0  0  0  0  0  0  0  0  0  0  0
    1.9456   -1.5616    0.7312 h   0  0  0  0  0  0  0  0  0  0  0  0
    1.1943   -0.5717    1.9945 h   0  0  0  0  0  0  0  0  0  0  0  0
    1.8667   -0.6457   -2.6227 h   0  0  0  0  0  0  0  0  0  0  0  0
    0.2682   -2.6845   -0.5928 h   0  0  0  0  0  0  0  0  0  0  0  0
   -1.3889   -2.0500   -0.6621 h   0  0  0  0  0  0  0  0  0  0  0  0
    3.7859    0.5236    1.7460 h   0  0  0  0  0  0  0  0  0  0  0  0
    3.8274    1.8161    0.4507 h   0  0  0  0  0  0  0  0  0  0  0  0
   -4.2056   -0.5979   -0.0137 h   0  0  0  0  0  0  0  0  0  0  0  0
   -3.0319   -1.2882    1.2062 h   0  0  0  0  0  0  0  0  0  0  0  0
   -0.0352   -2.7250    1.7041 h   0  0  0  0  0  0  0  0  0  0  0  0
   -2.0203    1.1672   -1.9150 h   0  0  0  0  0  0  0  0  0  0  0  0
   -3.6774    1.1997   -1.3258 h   0  0  0  0  0  0  0  0  0  0  0  0
   -2.4901    2.3265   -0.6746 h   0  0  0  0  0  0  0  0  0  0  0  0
  1  2  1  0  0  0  0
  2  3  1  0  0  0  0
  3  4  1  0  0  0  0
  4  5  1  0  0  0  0
  1  6  1  0  0  0  0
  5  6  1  0  0  0  0
  1  7  1  0  0  0  0
  5  8  1  0  0  0  0
  7  8  1  0  0  0  0
  6  9  1  0  0  0  0
  1 10  1  0  0  0  0
  8 11  2  0  0  0  0
  2 12  1  0  0  0  0
 12 13  2  0  0  0  0
  2 14  1  0  0  0  0
 10 15  1  0  0  0  0
 12 16  1  0  0  0  0
  3 17  1  0  0  0  0
  3 18  1  0  0  0  0
  4 19  1  0  0  0  0
  4 20  1  0  0  0  0
  5 21  1  0  0  0  0
  6 22  1  0  0  0  0
  7 23  1  0  0  0  0
  7 24  1  0  0  0  0
  9 25  1  0  0  0  0
 10 26  1  0  0  0  0
 10 27  1  0  0  0  0
 11 28  1  0  0  0  0
 11 29  1  0  0  0  0
 13 30  1  0  0  0  0
 13 31  1  0  0  0  0
 15 32  1  0  0  0  0
 16 33  1  0  0  0  0
 16 34  1  0  0  0  0
 16 35  1  0  0  0  0
M  END
