 xtb: 6.7.1 (edcfbbe)
          08092617483D

 35 36  0     0  0            999 V2000
    0.1120   -0.6898   -0.2588 c   0  0  0  0  0  0  0  0  0  0  0  0
    0.5986    0.6247   -0.9307 c   0  0  0  0  0  0  0  0  0  0  0  0
   -0.4895    1.7125   -0.8447 c   0  0  0  0  0  0  0  0  0  0  0  0
   -1.2257    1.7555    0.4922 c   0  0  0  0  0  0  0  0  0  0  0  0
   -1.6841    0.3483    0.8922 c   0  0  0  0  0  0  0  0  0  0  0  0
   -0.4445   -0.5124    1.1668 c   0  0  0  0  0  0  0  0  0  0  0  0
   -1.1811   -1.1419   -0.9691 c   0  0  0  0  0  0  0  0  0  0  0  0
   -2.2852   -0.3778   -0.2842 c   0  0  0  0  0  0  0  0  0  0  0  0
    0.4717   -0.0019    2.1077 o   0  0  0  0  0  0  0  0  0  0  0  0
    1.2110   -1.7609   -0.3401 c   0  0  0  0  0  0  0  0  0  0  0  0
   -3.5558   -0.3502   -0.6436 c   0  0  0  0  0  0  0  0  0  0  0  0
    1.9794    1.1126   -0.5322 c   0  0  0  0  0  0  0  0  0  0  0  0
    3.0286    0.7649   -1.2662 c   0  0  0  0  0  0  0  0  0  0  0  0
    0.6967    0.3637   -1.9920 h   0  0  0  0  0  0  0  0  0  0  0  0
    0.8141   -3.0225    0.1578 o   0  0  0  0  0  0  0  0  0  0  0  0
    2.1519    2.0318    0.6371 c   0  0  0  0  0  0  0  0  0  0  0  0
   -0.0443    2.6853   -1.0589 h   0  0  0  0  0  0  0  0  0  0  0  0
   -1.2273    1.5199   -1.6262 h   0  0  0  0  0  0  0  0  0  0  0  0
   -0.5782    2.1479    1.2770 h   0  0  0  0  0  0  0  0  0  0  0  0
   -2.0923    2.4135    0.4025 h   0  0  0  0  0  0  0  0  0  0  0  0
   -2.3622    0.3995    1.7486 h   0  0  0  0  0  0  0  0  0  0  0  0
   -0.7876   -1.5026    1.5162 h   0  0  0  0  0  0  0  0  0  0  0  0
   -1.1543   -0.9626   -2.0432 h   0  0  0  0  0  0  0  0  0  0  0  0
   -1.3161   -2.2167   -0.8178 h   0  0  0  0  0  0  0  0  0  0  0  0
   -0.0090    0.1716    2.9268 h   0  0  0  0  0  0  0  0  0  0  0  0
    2.1032   -1.4058    0.1870 h   0  0  0  0  0  0  0  0  0  0  0  0
    1.4683   -1.9337   -1.3876 h   0  0  0  0  0  0  0  0  0  0  0  0
   -3.9120   -0.8890   -1.5056 h   0  0  0  0  0  0  0  0  0  0  0  0
   -4.2897    0.2130   -0.0921 h   0  0  0  0  0  0  0  0  0  0  0  0
    4.0240    1.1019   -1.0286 h   0  0  0  0  0  0  0  0  0  0  0  0
    2.9452    0.1223   -2.1270 h   0  0  0  0  0  0  0  0  0  0  0  0
    0.7494   -2.9613    1.1185 h   0  0  0  0  0  0  0  0  0  0  0  0
    1.5796    2.9472    0.5002 h   0  0  0  0  0  0  0  0  0  0  0  0
    1.8107    1.5451    1.5458 h   0  0  0  0  0  0  0  0  0  0  0  0
    3.1999    2.2971    0.7539 h   0  0  0  0  0  0  0  0  0  0  0  0
  1  2  1  0  0  0  0
  2  3  1  0  0  0  0
  3  4  1  0  0  0  0
  4  5  1  0  0  0  0
  1  6  1  0  0  0  0
  5  6  1  0  0  0  0
  1  7  1  0  0  0  0
  5  8  1  0  0  0  0
  7  8  1  0  0  0  0
  6  9  1  0  0  0  0
  1 10  1  0  0  0  0
  8 11  2  0  0  0  0
  2 12  1  0  0  0  0
 12 13  2  0  0  0  0
  2 14  1  0  0  0  0
 10 15  1  0  0  0  0
 12 16  1  0  0  0  0
  3 17  1  0  0  0  0
  3 18  1  0  0  0  0
  4 19  1  0  0  0  0
  4 20  1  0  0  0  0
  5 21  1  0  0  0  0
  6 22  1  0  0  0  0
  7 23  1  0  0  0  0
  7 24  1  0  0  0  0
  9 25  1  0  0  0  0
 10 26  1  0  0  0  0
 10 27  1  0  0  0  0
 11 28  1  0  0  0  0
 11 29  1  0  0  0  0
 13 30  1  0  0  0  0
 13 31  1  0  0  0  0
 15 32  1  0  0  0  0
 16 33  1  0  0  0  0
 16 34  1  0  0  0  0
 16 35  1  0  0  0  0
M  END
