 xtb: 6.7.1 (edcfbbe)
          08092612213D

 54 57  0     0  0            999 V2000
   -1.3087   -1.5040    1.9548 c   0  0  0  0  0  0  0  0  0  0  0  0
   -2.7059   -1.3006    1.3876 c   0  0  0  0  0  0  0  0  0  0  0  0
   -2.7435   -0.6637   -0.0120 c   0  0  0  0  0  0  0  0  0  0  0  0
   -1.6872    0.4998   -0.1736 c   0  0  0  0  0  0  0  0  0  0  0  0
   -0.2905    0.3015    0.5350 c   0  0  0  0  0  0  0  0  0  0  0  0
   -0.5459   -0.1850    1.9745 c   0  0  0  0  0  0  0  0  0  0  0  0
   -1.3771    0.7709   -1.6534 c   0  0  0  0  0  0  0  0  0  0  0  0
   -0.5825    2.0647   -1.8110 c   0  0  0  0  0  0  0  0  0  0  0  0
    0.7119    2.0734   -0.9919 c   0  0  0  0  0  0  0  0  0  0  0  0
    0.5480    1.6525    0.4984 c   0  0  0  0  0  0  0  0  0  0  0  0
    0.8029   -0.6788   -0.0086 c   0  0  0  0  0  0  0  0  0  0  0  0
    1.9316    1.1860    0.9785 c   0  0  0  0  0  0  0  0  0  0  0  0
    2.0554   -0.1681    0.3727 c   0  0  0  0  0  0  0  0  0  0  0  0
    3.2670   -0.8033    0.1744 c   0  0  0  0  0  0  0  0  0  0  0  0
    3.2721   -2.0337   -0.4684 c   0  0  0  0  0  0  0  0  0  0  0  0
    2.0698   -2.5598   -0.8594 c   0  0  0  0  0  0  0  0  0  0  0  0
    0.8357   -1.9307   -0.6314 c   0  0  0  0  0  0  0  0  0  0  0  0
   -0.1920   -2.6759   -1.0896 o   0  0  0  0  0  0  0  0  0  0  0  0
    4.4592   -0.2666    0.5840 o   0  0  0  0  0  0  0  0  0  0  0  0
   -2.5449   -1.7203   -0.9478 o   0  0  0  0  0  0  0  0  0  0  0  0
   -4.2027   -0.2276   -0.2703 c   0  0  0  0  0  0  0  0  0  0  0  0
   -2.4183    1.7269    0.4025 c   0  0  0  0  0  0  0  0  0  0  0  0
    1.3903    3.4330   -1.1754 c   0  0  0  0  0  0  0  0  0  0  0  0
    0.1716    2.8268    1.4197 c   0  0  0  0  0  0  0  0  0  0  0  0
   -1.3979   -1.8903    2.9728 h   0  0  0  0  0  0  0  0  0  0  0  0
   -0.7619   -2.2447    1.3732 h   0  0  0  0  0  0  0  0  0  0  0  0
   -3.2711   -0.6657    2.0719 h   0  0  0  0  0  0  0  0  0  0  0  0
   -3.2215   -2.2601    1.3193 h   0  0  0  0  0  0  0  0  0  0  0  0
    0.4007   -0.3309    2.4938 h   0  0  0  0  0  0  0  0  0  0  0  0
   -1.1283    0.5474    2.5348 h   0  0  0  0  0  0  0  0  0  0  0  0
   -0.7863   -0.0515   -2.0636 h   0  0  0  0  0  0  0  0  0  0  0  0
   -2.2999    0.8579   -2.2353 h   0  0  0  0  0  0  0  0  0  0  0  0
   -0.3145    2.1825   -2.8643 h   0  0  0  0  0  0  0  0  0  0  0  0
   -1.2047    2.9212   -1.5491 h   0  0  0  0  0  0  0  0  0  0  0  0
    1.3659    1.3175   -1.4412 h   0  0  0  0  0  0  0  0  0  0  0  0
    1.9664    1.1445    2.0716 h   0  0  0  0  0  0  0  0  0  0  0  0
    2.7149    1.8710    0.6455 h   0  0  0  0  0  0  0  0  0  0  0  0
    4.2032   -2.5458   -0.6450 h   0  0  0  0  0  0  0  0  0  0  0  0
    2.0225   -3.5146   -1.3589 h   0  0  0  0  0  0  0  0  0  0  0  0
   -1.0673   -2.2797   -0.8949 h   0  0  0  0  0  0  0  0  0  0  0  0
    4.2952    0.5705    1.0317 h   0  0  0  0  0  0  0  0  0  0  0  0
   -2.7009   -1.3856   -1.8382 h   0  0  0  0  0  0  0  0  0  0  0  0
   -4.7992   -1.1384   -0.3110 h   0  0  0  0  0  0  0  0  0  0  0  0
   -4.6127    0.4002    0.5119 h   0  0  0  0  0  0  0  0  0  0  0  0
   -4.3035    0.2801   -1.2280 h   0  0  0  0  0  0  0  0  0  0  0  0
   -2.7767    1.5354    1.4089 h   0  0  0  0  0  0  0  0  0  0  0  0
   -1.7933    2.5974    0.4280 h   0  0  0  0  0  0  0  0  0  0  0  0
   -3.2675    1.9758   -0.2263 h   0  0  0  0  0  0  0  0  0  0  0  0
    2.3095    3.5107   -0.6019 h   0  0  0  0  0  0  0  0  0  0  0  0
    1.6410    3.5716   -2.2250 h   0  0  0  0  0  0  0  0  0  0  0  0
    0.7354    4.2494   -0.8807 h   0  0  0  0  0  0  0  0  0  0  0  0
    1.0876    3.2931    1.7806 h   0  0  0  0  0  0  0  0  0  0  0  0
   -0.3879    3.6152    0.9259 h   0  0  0  0  0  0  0  0  0  0  0  0
   -0.3850    2.4941    2.2899 h   0  0  0  0  0  0  0  0  0  0  0  0
  1  2  1  0  0  0  0
  2  3  1  0  0  0  0
  3  4  1  0  0  0  0
  4  5  1  0  0  0  0
  1  6  1  0  0  0  0
  5  6  1  0  0  0  0
  4  7  1  0  0  0  0
  7  8  1  0  0  0  0
  8  9  1  0  0  0  0
  5 10  1  0  0  0  0
  9 10  1  0  0  0  0
  5 11  1  0  0  0  0
 10 12  1  0  0  0  0
 11 13  4  0  0  0  0
 12 13  1  0  0  0  0
 13 14  4  0  0  0  0
 14 15  4  0  0  0  0
 15 16  4  0  0  0  0
 11 17  4  0  0  0  0
 16 17  4  0  0  0  0
 17 18  1  0  0  0  0
 14 19  1  0  0  0  0
  3 20  1  0  0  0  0
  3 21  1  0  0  0  0
  4 22  1  0  0  0  0
  9 23  1  0  0  0  0
 10 24  1  0  0  0  0
  1 25  1  0  0  0  0
  1 26  1  0  0  0  0
  2 27  1  0  0  0  0
  2 28  1  0  0  0  0
  6 29  1  0  0  0  0
  6 30  1  0  0  0  0
  7 31  1  0  0  0  0
  7 32  1  0  0  0  0
  8 33  1  0  0  0  0
  8 34  1  0  0  0  0
  9 35  1  0  0  0  0
 12 36  1  0  0  0  0
 12 37  1  0  0  0  0
 15 38  1  0  0  0  0
 16 39  1  0  0  0  0
 18 40  1  0  0  0  0
 19 41  1  0  0  0  0
 20 42  1  0  0  0  0
 21 43  1  0  0  0  0
 21 44  1  0  0  0  0
 21 45  1  0  0  0  0
 22 46  1  0  0  0  0
 22 47  1  0  0  0  0
 22 48  1  0  0  0  0
 23 49  1  0  0  0  0
 23 50  1  0  0  0  0
 23 51  1  0  0  0  0
 24 52  1  0  0  0  0
 24 53  1  0  0  0  0
 24 54  1  0  0  0  0
M  END
