 xtb: 6.7.1 (edcfbbe)
          08092617483D

 35 36  0     0  0            999 V2000
    0.0170   -0.7470   -0.0138 c   0  0  0  0  0  0  0  0  0  0  0  0
    0.6193    0.4699   -0.7645 c   0  0  0  0  0  0  0  0  0  0  0  0
   -0.4151    1.6094   -0.8783 c   0  0  0  0  0  0  0  0  0  0  0  0
   -1.2999    1.8070    0.3520 c   0  0  0  0  0  0  0  0  0  0  0  0
   -1.8256    0.4635    0.8691 c   0  0  0  0  0  0  0  0  0  0  0  0
   -0.6308   -0.3733    1.3374 c   0  0  0  0  0  0  0  0  0  0  0  0
   -1.2331   -1.2304   -0.7806 c   0  0  0  0  0  0  0  0  0  0  0  0
   -2.3588   -0.3670   -0.2665 c   0  0  0  0  0  0  0  0  0  0  0  0
    0.1506    0.3099    2.2837 o   0  0  0  0  0  0  0  0  0  0  0  0
    1.0459   -1.8721    0.1599 c   0  0  0  0  0  0  0  0  0  0  0  0
   -3.5929   -0.3434   -0.7354 c   0  0  0  0  0  0  0  0  0  0  0  0
    1.9760    0.9362   -0.2679 c   0  0  0  0  0  0  0  0  0  0  0  0
    2.1707    1.7702    0.7419 c   0  0  0  0  0  0  0  0  0  0  0  0
    0.8042    0.1125   -1.7851 h   0  0  0  0  0  0  0  0  0  0  0  0
    1.5428   -2.3837   -1.0587 o   0  0  0  0  0  0  0  0  0  0  0  0
    3.1342    0.4532   -1.0956 c   0  0  0  0  0  0  0  0  0  0  0  0
    0.1114    2.5394   -1.0999 h   0  0  0  0  0  0  0  0  0  0  0  0
   -1.0688    1.3931   -1.7264 h   0  0  0  0  0  0  0  0  0  0  0  0
   -0.7501    2.2867    1.1608 h   0  0  0  0  0  0  0  0  0  0  0  0
   -2.1407    2.4499    0.0846 h   0  0  0  0  0  0  0  0  0  0  0  0
   -2.5552    0.6269    1.6636 h   0  0  0  0  0  0  0  0  0  0  0  0
   -1.0050   -1.3062    1.7980 h   0  0  0  0  0  0  0  0  0  0  0  0
   -1.1248   -1.1484   -1.8624 h   0  0  0  0  0  0  0  0  0  0  0  0
   -1.4428   -2.2771   -0.5387 h   0  0  0  0  0  0  0  0  0  0  0  0
    0.9837   -0.1611    2.3986 h   0  0  0  0  0  0  0  0  0  0  0  0
    0.5933   -2.6860    0.7472 h   0  0  0  0  0  0  0  0  0  0  0  0
    1.9234   -1.5070    0.6998 h   0  0  0  0  0  0  0  0  0  0  0  0
   -3.8974   -0.9575   -1.5667 h   0  0  0  0  0  0  0  0  0  0  0  0
   -4.3482    0.2929   -0.3067 h   0  0  0  0  0  0  0  0  0  0  0  0
    3.1651    2.0862    1.0154 h   0  0  0  0  0  0  0  0  0  0  0  0
    1.3726    2.1624    1.3435 h   0  0  0  0  0  0  0  0  0  0  0  0
    0.7944   -2.7003   -1.5808 h   0  0  0  0  0  0  0  0  0  0  0  0
    3.0772   -0.6208   -1.2599 h   0  0  0  0  0  0  0  0  0  0  0  0
    3.1090    0.9364   -2.0734 h   0  0  0  0  0  0  0  0  0  0  0  0
    4.0828    0.6916   -0.6206 h   0  0  0  0  0  0  0  0  0  0  0  0
  1  2  1  0  0  0  0
  2  3  1  0  0  0  0
  3  4  1  0  0  0  0
  4  5  1  0  0  0  0
  1  6  1  0  0  0  0
  5  6  1  0  0  0  0
  1  7  1  0  0  0  0
  5  8  1  0  0  0  0
  7  8  1  0  0  0  0
  6  9  1  0  0  0  0
  1 10  1  0  0  0  0
  8 11  2  0  0  0  0
  2 12  1  0  0  0  0
 12 13  2  0  0  0  0
  2 14  1  0  0  0  0
 10 15  1  0  0  0  0
 12 16  1  0  0  0  0
  3 17  1  0  0  0  0
  3 18  1  0  0  0  0
  4 19  1  0  0  0  0
  4 20  1  0  0  0  0
  5 21  1  0  0  0  0
  6 22  1  0  0  0  0
  7 23  1  0  0  0  0
  7 24  1  0  0  0  0
  9 25  1  0  0  0  0
 10 26  1  0  0  0  0
 10 27  1  0  0  0  0
 11 28  1  0  0  0  0
 11 29  1  0  0  0  0
 13 30  1  0  0  0  0
 13 31  1  0  0  0  0
 15 32  1  0  0  0  0
 16 33  1  0  0  0  0
 16 34  1  0  0  0  0
 16 35  1  0  0  0  0
M  END
