 xtb: 6.7.1 (edcfbbe)
          08092617483D

 35 36  0     0  0            999 V2000
    0.0136   -0.7567   -0.0415 c   0  0  0  0  0  0  0  0  0  0  0  0
    0.6203    0.4757   -0.7717 c   0  0  0  0  0  0  0  0  0  0  0  0
   -0.4331    1.5946   -0.9024 c   0  0  0  0  0  0  0  0  0  0  0  0
   -1.3083    1.8084    0.3338 c   0  0  0  0  0  0  0  0  0  0  0  0
   -1.8050    0.4667    0.8780 c   0  0  0  0  0  0  0  0  0  0  0  0
   -0.6016   -0.3840    1.3242 c   0  0  0  0  0  0  0  0  0  0  0  0
   -1.2460   -1.2113   -0.8020 c   0  0  0  0  0  0  0  0  0  0  0  0
   -2.3612   -0.3616   -0.2491 c   0  0  0  0  0  0  0  0  0  0  0  0
    0.2558    0.1703    2.2746 o   0  0  0  0  0  0  0  0  0  0  0  0
    1.0147   -1.9000    0.1253 c   0  0  0  0  0  0  0  0  0  0  0  0
   -3.6084   -0.3419   -0.6813 c   0  0  0  0  0  0  0  0  0  0  0  0
    1.9495    0.9708   -0.2371 c   0  0  0  0  0  0  0  0  0  0  0  0
    2.1066    2.0040    0.5815 c   0  0  0  0  0  0  0  0  0  0  0  0
    0.8396    0.1210   -1.7862 h   0  0  0  0  0  0  0  0  0  0  0  0
    1.4595   -2.3514   -1.1390 o   0  0  0  0  0  0  0  0  0  0  0  0
    3.1678    0.3016   -0.8132 c   0  0  0  0  0  0  0  0  0  0  0  0
    0.0725    2.5264   -1.1641 h   0  0  0  0  0  0  0  0  0  0  0  0
   -1.0952    1.3431   -1.7331 h   0  0  0  0  0  0  0  0  0  0  0  0
   -0.7742    2.3341    1.1269 h   0  0  0  0  0  0  0  0  0  0  0  0
   -2.1653    2.4257    0.0551 h   0  0  0  0  0  0  0  0  0  0  0  0
   -2.5224    0.6294    1.6842 h   0  0  0  0  0  0  0  0  0  0  0  0
   -0.9827   -1.2987    1.7980 h   0  0  0  0  0  0  0  0  0  0  0  0
   -1.1386   -1.1133   -1.8816 h   0  0  0  0  0  0  0  0  0  0  0  0
   -1.4465   -2.2647   -0.5917 h   0  0  0  0  0  0  0  0  0  0  0  0
    0.7731    0.8686    1.8516 h   0  0  0  0  0  0  0  0  0  0  0  0
    0.5140   -2.7174    0.6634 h   0  0  0  0  0  0  0  0  0  0  0  0
    1.8590   -1.5621    0.7420 h   0  0  0  0  0  0  0  0  0  0  0  0
   -3.9322   -0.9523   -1.5075 h   0  0  0  0  0  0  0  0  0  0  0  0
   -4.3561    0.2848   -0.2258 h   0  0  0  0  0  0  0  0  0  0  0  0
    3.0924    2.3218    0.8798 h   0  0  0  0  0  0  0  0  0  0  0  0
    1.3006    2.6061    0.9632 h   0  0  0  0  0  0  0  0  0  0  0  0
    1.9794   -3.1513   -1.0156 h   0  0  0  0  0  0  0  0  0  0  0  0
    2.9430   -0.6937   -1.1806 h   0  0  0  0  0  0  0  0  0  0  0  0
    3.5242    0.8895   -1.6605 h   0  0  0  0  0  0  0  0  0  0  0  0
    3.9720    0.2507   -0.0825 h   0  0  0  0  0  0  0  0  0  0  0  0
  1  2  1  0  0  0  0
  2  3  1  0  0  0  0
  3  4  1  0  0  0  0
  4  5  1  0  0  0  0
  1  6  1  0  0  0  0
  5  6  1  0  0  0  0
  1  7  1  0  0  0  0
  5  8  1  0  0  0  0
  7  8  1  0  0  0  0
  6  9  1  0  0  0  0
  1 10  1  0  0  0  0
  8 11  2  0  0  0  0
  2 12  1  0  0  0  0
 12 13  2  0  0  0  0
  2 14  1  0  0  0  0
 10 15  1  0  0  0  0
 12 16  1  0  0  0  0
  3 17  1  0  0  0  0
  3 18  1  0  0  0  0
  4 19  1  0  0  0  0
  4 20  1  0  0  0  0
  5 21  1  0  0  0  0
  6 22  1  0  0  0  0
  7 23  1  0  0  0  0
  7 24  1  0  0  0  0
  9 25  1  0  0  0  0
 10 26  1  0  0  0  0
 10 27  1  0  0  0  0
 11 28  1  0  0  0  0
 11 29  1  0  0  0  0
 13 30  1  0  0  0  0
 13 31  1  0  0  0  0
 15 32  1  0  0  0  0
 16 33  1  0  0  0  0
 16 34  1  0  0  0  0
 16 35  1  0  0  0  0
M  END
