 xtb: 6.7.1 (edcfbbe)
          08092612213D

 54 57  0     0  0            999 V2000
   -1.7018   -0.9679    2.3063 c   0  0  0  0  0  0  0  0  0  0  0  0
   -2.0978   -1.7475    1.0665 c   0  0  0  0  0  0  0  0  0  0  0  0
   -2.6198   -0.8034   -0.0269 c   0  0  0  0  0  0  0  0  0  0  0  0
   -1.6974    0.4854   -0.1524 c   0  0  0  0  0  0  0  0  0  0  0  0
   -0.3022    0.3332    0.5378 c   0  0  0  0  0  0  0  0  0  0  0  0
   -0.4889   -0.0744    2.0284 c   0  0  0  0  0  0  0  0  0  0  0  0
   -1.4401    0.8307   -1.6307 c   0  0  0  0  0  0  0  0  0  0  0  0
   -0.5980    2.0932   -1.7976 c   0  0  0  0  0  0  0  0  0  0  0  0
    0.7345    2.0150   -1.0504 c   0  0  0  0  0  0  0  0  0  0  0  0
    0.5535    1.6689    0.4525 c   0  0  0  0  0  0  0  0  0  0  0  0
    0.7690   -0.6549   -0.0207 c   0  0  0  0  0  0  0  0  0  0  0  0
    1.9041    1.1837    1.0093 c   0  0  0  0  0  0  0  0  0  0  0  0
    2.0154   -0.1933    0.4433 c   0  0  0  0  0  0  0  0  0  0  0  0
    3.2073   -0.8763    0.3065 c   0  0  0  0  0  0  0  0  0  0  0  0
    3.1972   -2.0925   -0.3664 c   0  0  0  0  0  0  0  0  0  0  0  0
    2.0137   -2.5276   -0.9007 c   0  0  0  0  0  0  0  0  0  0  0  0
    0.7975   -1.8374   -0.7630 c   0  0  0  0  0  0  0  0  0  0  0  0
   -0.1976   -2.4451   -1.4496 o   0  0  0  0  0  0  0  0  0  0  0  0
    4.3940   -0.3998    0.7977 o   0  0  0  0  0  0  0  0  0  0  0  0
   -2.6332   -1.5656   -1.2362 o   0  0  0  0  0  0  0  0  0  0  0  0
   -4.1049   -0.5176    0.2583 c   0  0  0  0  0  0  0  0  0  0  0  0
   -2.4714    1.6576    0.4739 c   0  0  0  0  0  0  0  0  0  0  0  0
    1.5217    3.3022   -1.3050 c   0  0  0  0  0  0  0  0  0  0  0  0
    0.1620    2.9142    1.2617 c   0  0  0  0  0  0  0  0  0  0  0  0
   -2.5512   -0.3757    2.6509 h   0  0  0  0  0  0  0  0  0  0  0  0
   -1.4565   -1.6655    3.1088 h   0  0  0  0  0  0  0  0  0  0  0  0
   -2.8753   -2.4755    1.3021 h   0  0  0  0  0  0  0  0  0  0  0  0
   -1.2349   -2.3040    0.7085 h   0  0  0  0  0  0  0  0  0  0  0  0
    0.4051   -0.6119    2.3450 h   0  0  0  0  0  0  0  0  0  0  0  0
   -0.5673    0.8129    2.6549 h   0  0  0  0  0  0  0  0  0  0  0  0
   -0.9116    0.0098   -2.1178 h   0  0  0  0  0  0  0  0  0  0  0  0
   -2.3918    0.9822   -2.1504 h   0  0  0  0  0  0  0  0  0  0  0  0
   -0.3873    2.2244   -2.8621 h   0  0  0  0  0  0  0  0  0  0  0  0
   -1.1589    2.9735   -1.4809 h   0  0  0  0  0  0  0  0  0  0  0  0
    1.3039    1.1918   -1.4949 h   0  0  0  0  0  0  0  0  0  0  0  0
    1.8871    1.1860    2.1029 h   0  0  0  0  0  0  0  0  0  0  0  0
    2.7242    1.8289    0.6856 h   0  0  0  0  0  0  0  0  0  0  0  0
    4.1116   -2.6503   -0.4810 h   0  0  0  0  0  0  0  0  0  0  0  0
    1.9706   -3.4434   -1.4689 h   0  0  0  0  0  0  0  0  0  0  0  0
   -1.0765   -2.0358   -1.3359 h   0  0  0  0  0  0  0  0  0  0  0  0
    4.2382    0.4390    1.2455 h   0  0  0  0  0  0  0  0  0  0  0  0
   -3.1137   -1.0819   -1.9164 h   0  0  0  0  0  0  0  0  0  0  0  0
   -4.5445    0.1154   -0.5105 h   0  0  0  0  0  0  0  0  0  0  0  0
   -4.6251   -1.4743    0.2322 h   0  0  0  0  0  0  0  0  0  0  0  0
   -4.2750   -0.0683    1.2293 h   0  0  0  0  0  0  0  0  0  0  0  0
   -1.9324    2.5822    0.3700 h   0  0  0  0  0  0  0  0  0  0  0  0
   -3.4202    1.7974   -0.0349 h   0  0  0  0  0  0  0  0  0  0  0  0
   -2.6627    1.4981    1.5286 h   0  0  0  0  0  0  0  0  0  0  0  0
    0.9627    4.1830   -0.9992 h   0  0  0  0  0  0  0  0  0  0  0  0
    2.4747    3.3040   -0.7837 h   0  0  0  0  0  0  0  0  0  0  0  0
    1.7276    3.3917   -2.3696 h   0  0  0  0  0  0  0  0  0  0  0  0
   -0.3990    2.6735    2.1593 h   0  0  0  0  0  0  0  0  0  0  0  0
    1.0735    3.4209    1.5763 h   0  0  0  0  0  0  0  0  0  0  0  0
   -0.4076    3.6367    0.6855 h   0  0  0  0  0  0  0  0  0  0  0  0
  1  2  1  0  0  0  0
  2  3  1  0  0  0  0
  3  4  1  0  0  0  0
  4  5  1  0  0  0  0
  1  6  1  0  0  0  0
  5  6  1  0  0  0  0
  4  7  1  0  0  0  0
  7  8  1  0  0  0  0
  8  9  1  0  0  0  0
  5 10  1  0  0  0  0
  9 10  1  0  0  0  0
  5 11  1  0  0  0  0
 10 12  1  0  0  0  0
 11 13  4  0  0  0  0
 12 13  1  0  0  0  0
 13 14  4  0  0  0  0
 14 15  4  0  0  0  0
 15 16  4  0  0  0  0
 11 17  4  0  0  0  0
 16 17  4  0  0  0  0
 17 18  1  0  0  0  0
 14 19  1  0  0  0  0
  3 20  1  0  0  0  0
  3 21  1  0  0  0  0
  4 22  1  0  0  0  0
  9 23  1  0  0  0  0
 10 24  1  0  0  0  0
  1 25  1  0  0  0  0
  1 26  1  0  0  0  0
  2 27  1  0  0  0  0
  2 28  1  0  0  0  0
  6 29  1  0  0  0  0
  6 30  1  0  0  0  0
  7 31  1  0  0  0  0
  7 32  1  0  0  0  0
  8 33  1  0  0  0  0
  8 34  1  0  0  0  0
  9 35  1  0  0  0  0
 12 36  1  0  0  0  0
 12 37  1  0  0  0  0
 15 38  1  0  0  0  0
 16 39  1  0  0  0  0
 18 40  1  0  0  0  0
 19 41  1  0  0  0  0
 20 42  1  0  0  0  0
 21 43  1  0  0  0  0
 21 44  1  0  0  0  0
 21 45  1  0  0  0  0
 22 46  1  0  0  0  0
 22 47  1  0  0  0  0
 22 48  1  0  0  0  0
 23 49  1  0  0  0  0
 23 50  1  0  0  0  0
 23 51  1  0  0  0  0
 24 52  1  0  0  0  0
 24 53  1  0  0  0  0
 24 54  1  0  0  0  0
M  END
