 xtb: 6.7.1 (edcfbbe)
          08092617053D

 35 36  0     0  0            999 V2000
    0.1540   -0.6081    0.3827 c   0  0  0  0  0  0  0  0  0  0  0  0
   -0.8930    0.4773    0.7507 c   0  0  0  0  0  0  0  0  0  0  0  0
   -0.3379    1.8986    0.5135 c   0  0  0  0  0  0  0  0  0  0  0  0
    0.5276    2.0535   -0.7366 c   0  0  0  0  0  0  0  0  0  0  0  0
    1.5199    0.8921   -0.8421 c   0  0  0  0  0  0  0  0  0  0  0  0
    0.7246   -0.4037   -1.0311 c   0  0  0  0  0  0  0  0  0  0  0  0
    1.4156   -0.3710    1.2397 c   0  0  0  0  0  0  0  0  0  0  0  0
    2.2040    0.6642    0.4821 c   0  0  0  0  0  0  0  0  0  0  0  0
    1.5618   -1.5030   -1.3510 o   0  0  0  0  0  0  0  0  0  0  0  0
   -0.3917   -2.0286    0.6001 c   0  0  0  0  0  0  0  0  0  0  0  0
    3.3068    1.2628    0.8936 c   0  0  0  0  0  0  0  0  0  0  0  0
   -2.2834    0.2999    0.1732 c   0  0  0  0  0  0  0  0  0  0  0  0
   -3.2743   -0.0867    0.9711 c   0  0  0  0  0  0  0  0  0  0  0  0
   -1.0272    0.3755    1.8349 h   0  0  0  0  0  0  0  0  0  0  0  0
   -1.3962   -2.4226   -0.3065 o   0  0  0  0  0  0  0  0  0  0  0  0
   -2.5614    0.6157   -1.2664 c   0  0  0  0  0  0  0  0  0  0  0  0
   -1.1706    2.6043    0.4805 h   0  0  0  0  0  0  0  0  0  0  0  0
    0.2763    2.1668    1.3749 h   0  0  0  0  0  0  0  0  0  0  0  0
   -0.0796    2.0794   -1.6427 h   0  0  0  0  0  0  0  0  0  0  0  0
    1.0723    2.9976   -0.6728 h   0  0  0  0  0  0  0  0  0  0  0  0
    2.2294    1.0693   -1.6549 h   0  0  0  0  0  0  0  0  0  0  0  0
   -0.0509   -0.3102   -1.7976 h   0  0  0  0  0  0  0  0  0  0  0  0
    1.9953   -1.2949    1.2951 h   0  0  0  0  0  0  0  0  0  0  0  0
    1.1830   -0.0584    2.2571 h   0  0  0  0  0  0  0  0  0  0  0  0
    1.9986   -1.3140   -2.1902 h   0  0  0  0  0  0  0  0  0  0  0  0
   -0.7547   -2.1196    1.6338 h   0  0  0  0  0  0  0  0  0  0  0  0
    0.4204   -2.7429    0.4477 h   0  0  0  0  0  0  0  0  0  0  0  0
    3.7369    1.0572    1.8596 h   0  0  0  0  0  0  0  0  0  0  0  0
    3.8249    1.9819    0.2815 h   0  0  0  0  0  0  0  0  0  0  0  0
   -4.2837   -0.2011    0.6107 h   0  0  0  0  0  0  0  0  0  0  0  0
   -3.1228   -0.3083    2.0149 h   0  0  0  0  0  0  0  0  0  0  0  0
   -2.1634   -1.8447   -0.1707 h   0  0  0  0  0  0  0  0  0  0  0  0
   -2.2041    1.6100   -1.5219 h   0  0  0  0  0  0  0  0  0  0  0  0
   -2.0760   -0.1022   -1.9252 h   0  0  0  0  0  0  0  0  0  0  0  0
   -3.6318    0.5760   -1.4573 h   0  0  0  0  0  0  0  0  0  0  0  0
  1  2  1  0  0  0  0
  2  3  1  0  0  0  0
  3  4  1  0  0  0  0
  4  5  1  0  0  0  0
  1  6  1  0  0  0  0
  5  6  1  0  0  0  0
  1  7  1  0  0  0  0
  5  8  1  0  0  0  0
  7  8  1  0  0  0  0
  6  9  1  0  0  0  0
  1 10  1  0  0  0  0
  8 11  2  0  0  0  0
  2 12  1  0  0  0  0
 12 13  2  0  0  0  0
  2 14  1  0  0  0  0
 10 15  1  0  0  0  0
 12 16  1  0  0  0  0
  3 17  1  0  0  0  0
  3 18  1  0  0  0  0
  4 19  1  0  0  0  0
  4 20  1  0  0  0  0
  5 21  1  0  0  0  0
  6 22  1  0  0  0  0
  7 23  1  0  0  0  0
  7 24  1  0  0  0  0
  9 25  1  0  0  0  0
 10 26  1  0  0  0  0
 10 27  1  0  0  0  0
 11 28  1  0  0  0  0
 11 29  1  0  0  0  0
 13 30  1  0  0  0  0
 13 31  1  0  0  0  0
 15 32  1  0  0  0  0
 16 33  1  0  0  0  0
 16 34  1  0  0  0  0
 16 35  1  0  0  0  0
M  END
