 xtb: 6.7.1 (edcfbbe)
          08092615283D

 35 36  0     0  0            999 V2000
    0.1363   -0.5702    0.4138 c   0  0  0  0  0  0  0  0  0  0  0  0
   -0.9324    0.5078    0.7319 c   0  0  0  0  0  0  0  0  0  0  0  0
   -0.3384    1.9235    0.5614 c   0  0  0  0  0  0  0  0  0  0  0  0
    0.5834    2.1101   -0.6458 c   0  0  0  0  0  0  0  0  0  0  0  0
    1.5284    0.9141   -0.8009 c   0  0  0  0  0  0  0  0  0  0  0  0
    0.6785   -0.3415   -1.0072 c   0  0  0  0  0  0  0  0  0  0  0  0
    1.3857   -0.3292    1.2859 c   0  0  0  0  0  0  0  0  0  0  0  0
    2.2241    0.6479    0.5081 c   0  0  0  0  0  0  0  0  0  0  0  0
    1.4349   -1.4729   -1.4172 o   0  0  0  0  0  0  0  0  0  0  0  0
   -0.3873   -2.0005    0.6161 c   0  0  0  0  0  0  0  0  0  0  0  0
    3.3716    1.1761    0.8931 c   0  0  0  0  0  0  0  0  0  0  0  0
   -2.2528    0.3252    0.0078 c   0  0  0  0  0  0  0  0  0  0  0  0
   -2.5148    0.7679   -1.2131 c   0  0  0  0  0  0  0  0  0  0  0  0
   -1.1592    0.3907    1.7981 h   0  0  0  0  0  0  0  0  0  0  0  0
   -1.3077   -2.4244   -0.3652 o   0  0  0  0  0  0  0  0  0  0  0  0
   -3.3296   -0.3493    0.8080 c   0  0  0  0  0  0  0  0  0  0  0  0
   -1.1580    2.6421    0.5054 h   0  0  0  0  0  0  0  0  0  0  0  0
    0.2393    2.1565    1.4578 h   0  0  0  0  0  0  0  0  0  0  0  0
    0.0100    2.2317   -1.5654 h   0  0  0  0  0  0  0  0  0  0  0  0
    1.1709    3.0194   -0.5029 h   0  0  0  0  0  0  0  0  0  0  0  0
    2.2285    1.0888   -1.6229 h   0  0  0  0  0  0  0  0  0  0  0  0
   -0.1298   -0.1745   -1.7299 h   0  0  0  0  0  0  0  0  0  0  0  0
    1.9391   -1.2632    1.4065 h   0  0  0  0  0  0  0  0  0  0  0  0
    1.1341    0.0368    2.2808 h   0  0  0  0  0  0  0  0  0  0  0  0
    1.9976   -1.2102   -2.1556 h   0  0  0  0  0  0  0  0  0  0  0  0
   -0.9069   -2.0749    1.5744 h   0  0  0  0  0  0  0  0  0  0  0  0
    0.4685   -2.6875    0.6313 h   0  0  0  0  0  0  0  0  0  0  0  0
    3.8062    0.9503    1.8524 h   0  0  0  0  0  0  0  0  0  0  0  0
    3.9216    1.8574    0.2658 h   0  0  0  0  0  0  0  0  0  0  0  0
   -3.4866    0.6240   -1.6565 h   0  0  0  0  0  0  0  0  0  0  0  0
   -1.8025    1.2861   -1.8285 h   0  0  0  0  0  0  0  0  0  0  0  0
   -0.8345   -2.4517   -1.2059 h   0  0  0  0  0  0  0  0  0  0  0  0
   -4.2804   -0.3135    0.2826 h   0  0  0  0  0  0  0  0  0  0  0  0
   -3.0743   -1.3932    0.9754 h   0  0  0  0  0  0  0  0  0  0  0  0
   -3.4454    0.1356    1.7769 h   0  0  0  0  0  0  0  0  0  0  0  0
  1  2  1  0  0  0  0
  2  3  1  0  0  0  0
  3  4  1  0  0  0  0
  4  5  1  0  0  0  0
  1  6  1  0  0  0  0
  5  6  1  0  0  0  0
  1  7  1  0  0  0  0
  5  8  1  0  0  0  0
  7  8  1  0  0  0  0
  6  9  1  0  0  0  0
  1 10  1  0  0  0  0
  8 11  2  0  0  0  0
  2 12  1  0  0  0  0
 12 13  2  0  0  0  0
  2 14  1  0  0  0  0
 10 15  1  0  0  0  0
 12 16  1  0  0  0  0
  3 17  1  0  0  0  0
  3 18  1  0  0  0  0
  4 19  1  0  0  0  0
  4 20  1  0  0  0  0
  5 21  1  0  0  0  0
  6 22  1  0  0  0  0
  7 23  1  0  0  0  0
  7 24  1  0  0  0  0
  9 25  1  0  0  0  0
 10 26  1  0  0  0  0
 10 27  1  0  0  0  0
 11 28  1  0  0  0  0
 11 29  1  0  0  0  0
 13 30  1  0  0  0  0
 13 31  1  0  0  0  0
 15 32  1  0  0  0  0
 16 33  1  0  0  0  0
 16 34  1  0  0  0  0
 16 35  1  0  0  0  0
M  END
