 xtb: 6.7.1 (edcfbbe)
          08092616283D

 35 36  0     0  0            999 V2000
    0.0930   -0.6460    0.0722 c   0  0  0  0  0  0  0  0  0  0  0  0
   -0.9446    0.3160    0.7114 c   0  0  0  0  0  0  0  0  0  0  0  0
   -0.3458    1.7242    0.8807 c   0  0  0  0  0  0  0  0  0  0  0  0
    0.4899    2.2057   -0.3057 c   0  0  0  0  0  0  0  0  0  0  0  0
    1.4483    1.1014   -0.7650 c   0  0  0  0  0  0  0  0  0  0  0  0
    0.6160   -0.0842   -1.2592 c   0  0  0  0  0  0  0  0  0  0  0  0
    1.3773   -0.6489    0.9253 c   0  0  0  0  0  0  0  0  0  0  0  0
    2.1765    0.5209    0.4209 c   0  0  0  0  0  0  0  0  0  0  0  0
    1.4005   -1.0692   -1.9152 o   0  0  0  0  0  0  0  0  0  0  0  0
   -0.4760   -2.0559   -0.0867 c   0  0  0  0  0  0  0  0  0  0  0  0
    3.3199    0.9614    0.9136 c   0  0  0  0  0  0  0  0  0  0  0  0
   -2.3127    0.3043    0.0552 c   0  0  0  0  0  0  0  0  0  0  0  0
   -3.2533   -0.4994    0.5339 c   0  0  0  0  0  0  0  0  0  0  0  0
   -1.1080   -0.0894    1.7163 h   0  0  0  0  0  0  0  0  0  0  0  0
   -0.7985   -2.5810    1.1894 o   0  0  0  0  0  0  0  0  0  0  0  0
   -2.6297    1.2293   -1.0834 c   0  0  0  0  0  0  0  0  0  0  0  0
   -1.1487    2.4345    1.0859 h   0  0  0  0  0  0  0  0  0  0  0  0
    0.3008    1.7124    1.7598 h   0  0  0  0  0  0  0  0  0  0  0  0
   -0.1430    2.4948   -1.1452 h   0  0  0  0  0  0  0  0  0  0  0  0
    1.0650    3.0827   -0.0013 h   0  0  0  0  0  0  0  0  0  0  0  0
    2.1291    1.4844   -1.5307 h   0  0  0  0  0  0  0  0  0  0  0  0
   -0.1906    0.2227   -1.9342 h   0  0  0  0  0  0  0  0  0  0  0  0
    1.9285   -1.5741    0.7439 h   0  0  0  0  0  0  0  0  0  0  0  0
    1.1663   -0.5944    1.9921 h   0  0  0  0  0  0  0  0  0  0  0  0
    1.9372   -0.6267   -2.5851 h   0  0  0  0  0  0  0  0  0  0  0  0
    0.2782   -2.6817   -0.5791 h   0  0  0  0  0  0  0  0  0  0  0  0
   -1.3710   -2.0217   -0.7218 h   0  0  0  0  0  0  0  0  0  0  0  0
    3.7800    0.5035    1.7732 h   0  0  0  0  0  0  0  0  0  0  0  0
    3.8410    1.7985    0.4795 h   0  0  0  0  0  0  0  0  0  0  0  0
   -4.2427   -0.5387    0.1074 h   0  0  0  0  0  0  0  0  0  0  0  0
   -3.0666   -1.1630    1.3614 h   0  0  0  0  0  0  0  0  0  0  0  0
   -1.1229   -3.4811    1.0712 h   0  0  0  0  0  0  0  0  0  0  0  0
   -2.4214    2.2625   -0.8152 h   0  0  0  0  0  0  0  0  0  0  0  0
   -2.0483    0.9858   -1.9705 h   0  0  0  0  0  0  0  0  0  0  0  0
   -3.6836    1.1497   -1.3412 h   0  0  0  0  0  0  0  0  0  0  0  0
  1  2  1  0  0  0  0
  2  3  1  0  0  0  0
  3  4  1  0  0  0  0
  4  5  1  0  0  0  0
  1  6  1  0  0  0  0
  5  6  1  0  0  0  0
  1  7  1  0  0  0  0
  5  8  1  0  0  0  0
  7  8  1  0  0  0  0
  6  9  1  0  0  0  0
  1 10  1  0  0  0  0
  8 11  2  0  0  0  0
  2 12  1  0  0  0  0
 12 13  2  0  0  0  0
  2 14  1  0  0  0  0
 10 15  1  0  0  0  0
 12 16  1  0  0  0  0
  3 17  1  0  0  0  0
  3 18  1  0  0  0  0
  4 19  1  0  0  0  0
  4 20  1  0  0  0  0
  5 21  1  0  0  0  0
  6 22  1  0  0  0  0
  7 23  1  0  0  0  0
  7 24  1  0  0  0  0
  9 25  1  0  0  0  0
 10 26  1  0  0  0  0
 10 27  1  0  0  0  0
 11 28  1  0  0  0  0
 11 29  1  0  0  0  0
 13 30  1  0  0  0  0
 13 31  1  0  0  0  0
 15 32  1  0  0  0  0
 16 33  1  0  0  0  0
 16 34  1  0  0  0  0
 16 35  1  0  0  0  0
M  END
