 xtb: 6.7.1 (edcfbbe)
          08092617483D

 35 36  0     0  0            999 V2000
   -0.0708   -0.7862   -0.3508 c   0  0  0  0  0  0  0  0  0  0  0  0
    0.5193    0.5255   -0.9459 c   0  0  0  0  0  0  0  0  0  0  0  0
   -0.4765    1.6897   -0.7785 c   0  0  0  0  0  0  0  0  0  0  0  0
   -1.1962    1.7156    0.5687 c   0  0  0  0  0  0  0  0  0  0  0  0
   -1.7533    0.3271    0.9029 c   0  0  0  0  0  0  0  0  0  0  0  0
   -0.5855   -0.6423    1.0979 c   0  0  0  0  0  0  0  0  0  0  0  0
   -1.4062   -1.0734   -1.0673 c   0  0  0  0  0  0  0  0  0  0  0  0
   -2.4316   -0.2699   -0.3028 c   0  0  0  0  0  0  0  0  0  0  0  0
    0.3416   -0.2277    2.0700 o   0  0  0  0  0  0  0  0  0  0  0  0
    0.9049   -1.9672   -0.4659 c   0  0  0  0  0  0  0  0  0  0  0  0
   -3.7003   -0.1170   -0.6351 c   0  0  0  0  0  0  0  0  0  0  0  0
    1.9330    0.8770   -0.5190 c   0  0  0  0  0  0  0  0  0  0  0  0
    2.9621    0.4445   -1.2432 c   0  0  0  0  0  0  0  0  0  0  0  0
    0.5939    0.3273   -2.0235 h   0  0  0  0  0  0  0  0  0  0  0  0
    1.9569   -1.9212    0.4795 o   0  0  0  0  0  0  0  0  0  0  0  0
    2.1674    1.7622    0.6660 c   0  0  0  0  0  0  0  0  0  0  0  0
    0.0419    2.6353   -0.9434 h   0  0  0  0  0  0  0  0  0  0  0  0
   -1.2347    1.6022   -1.5594 h   0  0  0  0  0  0  0  0  0  0  0  0
   -0.5263    2.0167    1.3727 h   0  0  0  0  0  0  0  0  0  0  0  0
   -2.0157    2.4350    0.5189 h   0  0  0  0  0  0  0  0  0  0  0  0
   -2.4007    0.3808    1.7794 h   0  0  0  0  0  0  0  0  0  0  0  0
   -0.9887   -1.6248    1.4010 h   0  0  0  0  0  0  0  0  0  0  0  0
   -1.3821   -0.8128   -2.1251 h   0  0  0  0  0  0  0  0  0  0  0  0
   -1.6497   -2.1367   -0.9972 h   0  0  0  0  0  0  0  0  0  0  0  0
    1.0776   -0.8592    2.0233 h   0  0  0  0  0  0  0  0  0  0  0  0
    1.3085   -2.0292   -1.4840 h   0  0  0  0  0  0  0  0  0  0  0  0
    0.3740   -2.8993   -0.2506 h   0  0  0  0  0  0  0  0  0  0  0  0
   -4.1118   -0.5639   -1.5250 h   0  0  0  0  0  0  0  0  0  0  0  0
   -4.3776    0.4618   -0.0307 h   0  0  0  0  0  0  0  0  0  0  0  0
    3.9801    0.6840   -0.9816 h   0  0  0  0  0  0  0  0  0  0  0  0
    2.8369   -0.1548   -2.1308 h   0  0  0  0  0  0  0  0  0  0  0  0
    2.5324   -1.1754    0.2370 h   0  0  0  0  0  0  0  0  0  0  0  0
    1.6375    1.3944    1.5396 h   0  0  0  0  0  0  0  0  0  0  0  0
    3.2299    1.8195    0.8919 h   0  0  0  0  0  0  0  0  0  0  0  0
    1.8115    2.7701    0.4576 h   0  0  0  0  0  0  0  0  0  0  0  0
  1  2  1  0  0  0  0
  2  3  1  0  0  0  0
  3  4  1  0  0  0  0
  4  5  1  0  0  0  0
  1  6  1  0  0  0  0
  5  6  1  0  0  0  0
  1  7  1  0  0  0  0
  5  8  1  0  0  0  0
  7  8  1  0  0  0  0
  6  9  1  0  0  0  0
  1 10  1  0  0  0  0
  8 11  2  0  0  0  0
  2 12  1  0  0  0  0
 12 13  2  0  0  0  0
  2 14  1  0  0  0  0
 10 15  1  0  0  0  0
 12 16  1  0  0  0  0
  3 17  1  0  0  0  0
  3 18  1  0  0  0  0
  4 19  1  0  0  0  0
  4 20  1  0  0  0  0
  5 21  1  0  0  0  0
  6 22  1  0  0  0  0
  7 23  1  0  0  0  0
  7 24  1  0  0  0  0
  9 25  1  0  0  0  0
 10 26  1  0  0  0  0
 10 27  1  0  0  0  0
 11 28  1  0  0  0  0
 11 29  1  0  0  0  0
 13 30  1  0  0  0  0
 13 31  1  0  0  0  0
 15 32  1  0  0  0  0
 16 33  1  0  0  0  0
 16 34  1  0  0  0  0
 16 35  1  0  0  0  0
M  END
