 xtb: 6.7.1 (edcfbbe)
          08092615283D

 35 36  0     0  0            999 V2000
   -0.0408   -0.5555    0.2922 c   0  0  0  0  0  0  0  0  0  0  0  0
   -1.0268    0.5727    0.6970 c   0  0  0  0  0  0  0  0  0  0  0  0
   -0.3387    1.9531    0.6325 c   0  0  0  0  0  0  0  0  0  0  0  0
    0.5911    2.1640   -0.5629 c   0  0  0  0  0  0  0  0  0  0  0  0
    1.4527    0.9210   -0.8035 c   0  0  0  0  0  0  0  0  0  0  0  0
    0.5262   -0.2590   -1.1075 c   0  0  0  0  0  0  0  0  0  0  0  0
    1.2193   -0.4821    1.1748 c   0  0  0  0  0  0  0  0  0  0  0  0
    2.1219    0.5000    0.4809 c   0  0  0  0  0  0  0  0  0  0  0  0
    1.2363   -1.3853   -1.6102 o   0  0  0  0  0  0  0  0  0  0  0  0
   -0.7289   -1.9263    0.3914 c   0  0  0  0  0  0  0  0  0  0  0  0
    3.2979    0.9215    0.9091 c   0  0  0  0  0  0  0  0  0  0  0  0
   -2.3586    0.5359   -0.0285 c   0  0  0  0  0  0  0  0  0  0  0  0
   -2.5840    1.0248   -1.2391 c   0  0  0  0  0  0  0  0  0  0  0  0
   -1.2605    0.3922    1.7526 h   0  0  0  0  0  0  0  0  0  0  0  0
    0.1520   -3.0198    0.2766 o   0  0  0  0  0  0  0  0  0  0  0  0
   -3.4958   -0.0285    0.7758 c   0  0  0  0  0  0  0  0  0  0  0  0
   -1.1069    2.7285    0.6368 h   0  0  0  0  0  0  0  0  0  0  0  0
    0.2552    2.0758    1.5399 h   0  0  0  0  0  0  0  0  0  0  0  0
    0.0252    2.3866   -1.4682 h   0  0  0  0  0  0  0  0  0  0  0  0
    1.2377    3.0202   -0.3604 h   0  0  0  0  0  0  0  0  0  0  0  0
    2.1702    1.1087   -1.6076 h   0  0  0  0  0  0  0  0  0  0  0  0
   -0.2668   -0.0037   -1.8194 h   0  0  0  0  0  0  0  0  0  0  0  0
    1.6927   -1.4667    1.2089 h   0  0  0  0  0  0  0  0  0  0  0  0
    0.9928   -0.1898    2.1999 h   0  0  0  0  0  0  0  0  0  0  0  0
    1.7608   -1.1004   -2.3681 h   0  0  0  0  0  0  0  0  0  0  0  0
   -1.5096   -1.9919   -0.3803 h   0  0  0  0  0  0  0  0  0  0  0  0
   -1.1915   -2.0347    1.3763 h   0  0  0  0  0  0  0  0  0  0  0  0
    3.7129    0.5871    1.8450 h   0  0  0  0  0  0  0  0  0  0  0  0
    3.8927    1.6182    0.3422 h   0  0  0  0  0  0  0  0  0  0  0  0
   -3.5677    0.9846   -1.6785 h   0  0  0  0  0  0  0  0  0  0  0  0
   -1.8300    1.4912   -1.8456 h   0  0  0  0  0  0  0  0  0  0  0  0
    0.6876   -2.8627   -0.5163 h   0  0  0  0  0  0  0  0  0  0  0  0
   -3.2660   -1.0288    1.1351 h   0  0  0  0  0  0  0  0  0  0  0  0
   -3.6760    0.6036    1.6459 h   0  0  0  0  0  0  0  0  0  0  0  0
   -4.4080   -0.0698    0.1861 h   0  0  0  0  0  0  0  0  0  0  0  0
  1  2  1  0  0  0  0
  2  3  1  0  0  0  0
  3  4  1  0  0  0  0
  4  5  1  0  0  0  0
  1  6  1  0  0  0  0
  5  6  1  0  0  0  0
  1  7  1  0  0  0  0
  5  8  1  0  0  0  0
  7  8  1  0  0  0  0
  6  9  1  0  0  0  0
  1 10  1  0  0  0  0
  8 11  2  0  0  0  0
  2 12  1  0  0  0  0
 12 13  2  0  0  0  0
  2 14  1  0  0  0  0
 10 15  1  0  0  0  0
 12 16  1  0  0  0  0
  3 17  1  0  0  0  0
  3 18  1  0  0  0  0
  4 19  1  0  0  0  0
  4 20  1  0  0  0  0
  5 21  1  0  0  0  0
  6 22  1  0  0  0  0
  7 23  1  0  0  0  0
  7 24  1  0  0  0  0
  9 25  1  0  0  0  0
 10 26  1  0  0  0  0
 10 27  1  0  0  0  0
 11 28  1  0  0  0  0
 11 29  1  0  0  0  0
 13 30  1  0  0  0  0
 13 31  1  0  0  0  0
 15 32  1  0  0  0  0
 16 33  1  0  0  0  0
 16 34  1  0  0  0  0
 16 35  1  0  0  0  0
M  END
