 xtb: 6.7.1 (edcfbbe)
          08092621573D

 50 55  0     0  0            999 V2000
   -0.4304    0.0323   -2.4882 c   0  0  0  0  0  0  0  0  0  0  0  0
    1.0916    0.0406   -2.5891 c   0  0  0  0  0  0  0  0  0  0  0  0
   -2.6078    3.1706    0.5918 c   0  0  0  0  0  0  0  0  0  0  0  0
   -3.7258    2.5899    0.0175 c   0  0  0  0  0  0  0  0  0  0  0  0
   -3.6298    1.3247   -0.5213 c   0  0  0  0  0  0  0  0  0  0  0  0
   -2.4316    0.6114   -0.4703 c   0  0  0  0  0  0  0  0  0  0  0  0
   -1.3124    1.1587    0.1803 c   0  0  0  0  0  0  0  0  0  0  0  0
   -1.4289    2.4509    0.6777 c   0  0  0  0  0  0  0  0  0  0  0  0
   -2.3395   -0.6231   -1.0811 n   0  0  0  0  0  0  0  0  0  0  0  0
   -1.0020   -0.9919   -1.4857 c   0  0  0  0  0  0  0  0  0  0  0  0
   -0.1517   -1.0793   -0.1974 c   0  0  0  0  0  0  0  0  0  0  0  0
   -0.0592    0.3339    0.4386 c   0  0  0  0  0  0  0  0  0  0  0  0
    1.2739   -1.4580   -0.6299 c   0  0  0  0  0  0  0  0  0  0  0  0
    1.7630   -0.1242   -1.2182 c   0  0  0  0  0  0  0  0  0  0  0  0
    1.2559    0.8599   -0.1706 c   0  0  0  0  0  0  0  0  0  0  0  0
    3.2435    0.0815   -1.3874 c   0  0  0  0  0  0  0  0  0  0  0  0
    3.9443    0.9693   -0.6958 c   0  0  0  0  0  0  0  0  0  0  0  0
    3.3832    1.7118    0.4884 c   0  0  0  0  0  0  0  0  0  0  0  0
    2.2558    0.8901    0.9675 n   0  0  0  0  0  0  0  0  0  0  0  0
    1.4205    1.3687    2.0819 c   0  0  0  0  0  0  0  0  0  0  0  0
    0.2406    0.4000    1.9630 c   0  0  0  0  0  0  0  0  0  0  0  0
    2.7722   -0.2997    1.3524 o   0  0  0  0  0  0  0  0  0  0  0  0
    1.1680    1.8793   -0.5478 h   0  0  0  0  0  0  0  0  0  0  0  0
   -0.8068   -2.1147    0.6892 c   0  0  0  0  0  0  0  0  0  0  0  0
   -1.4729   -1.8900    1.6728 o   0  0  0  0  0  0  0  0  0  0  0  0
   -0.5941   -3.3450    0.2243 o   0  0  0  0  0  0  0  0  0  0  0  0
   -1.1853   -4.4204    0.9537 c   0  0  0  0  0  0  0  0  0  0  0  0
   -0.8612   -0.1668   -3.4721 h   0  0  0  0  0  0  0  0  0  0  0  0
   -0.7652    1.0245   -2.1807 h   0  0  0  0  0  0  0  0  0  0  0  0
    1.4322   -0.7820   -3.2206 h   0  0  0  0  0  0  0  0  0  0  0  0
    1.4135    0.9741   -3.0562 h   0  0  0  0  0  0  0  0  0  0  0  0
   -2.6545    4.1747    0.9858 h   0  0  0  0  0  0  0  0  0  0  0  0
   -4.6603    3.1290   -0.0300 h   0  0  0  0  0  0  0  0  0  0  0  0
   -4.4836    0.8685   -1.0022 h   0  0  0  0  0  0  0  0  0  0  0  0
   -0.5828    2.9218    1.1502 h   0  0  0  0  0  0  0  0  0  0  0  0
   -3.0743   -0.8179   -1.7462 h   0  0  0  0  0  0  0  0  0  0  0  0
   -1.0373   -1.9882   -1.9360 h   0  0  0  0  0  0  0  0  0  0  0  0
    1.8862   -1.7242    0.2311 h   0  0  0  0  0  0  0  0  0  0  0  0
    1.2764   -2.2721   -1.3510 h   0  0  0  0  0  0  0  0  0  0  0  0
    3.7131   -0.4914   -2.1733 h   0  0  0  0  0  0  0  0  0  0  0  0
    4.9936    1.1250   -0.8949 h   0  0  0  0  0  0  0  0  0  0  0  0
    3.0593    2.7270    0.2417 h   0  0  0  0  0  0  0  0  0  0  0  0
    4.1292    1.7468    1.2851 h   0  0  0  0  0  0  0  0  0  0  0  0
    1.9705    1.2403    3.0131 h   0  0  0  0  0  0  0  0  0  0  0  0
    1.1471    2.4131    1.9398 h   0  0  0  0  0  0  0  0  0  0  0  0
   -0.6275    0.7106    2.5380 h   0  0  0  0  0  0  0  0  0  0  0  0
    0.5739   -0.5714    2.3254 h   0  0  0  0  0  0  0  0  0  0  0  0
   -0.9614   -5.3207    0.3884 h   0  0  0  0  0  0  0  0  0  0  0  0
   -0.7549   -4.4750    1.9549 h   0  0  0  0  0  0  0  0  0  0  0  0
   -2.2625   -4.2676    1.0391 h   0  0  0  0  0  0  0  0  0  0  0  0
  1  2  1  0  0  0  0
  3  4  4  0  0  0  0
  4  5  4  0  0  0  0
  5  6  4  0  0  0  0
  6  7  4  0  0  0  0
  3  8  4  0  0  0  0
  7  8  4  0  0  0  0
  6  9  1  0  0  0  0
  1 10  1  0  0  0  0
  9 10  1  0  0  0  0
 10 11  1  0  0  0  0
  7 12  1  0  0  0  0
 11 12  1  0  0  0  0
 11 13  1  0  0  0  0
  2 14  1  0  0  0  0
 13 14  1  0  0  0  0
 12 15  1  0  0  0  0
 14 15  1  0  0  0  0
 14 16  1  0  0  0  0
 16 17  2  0  0  0  0
 17 18  1  0  0  0  0
 15 19  1  0  0  0  0
 18 19  1  0  0  0  0
 19 20  1  0  0  0  0
 12 21  1  0  0  0  0
 20 21  1  0  0  0  0
 19 22  1  0  0  0  0
 15 23  1  0  0  0  0
 11 24  1  0  0  0  0
 24 25  2  0  0  0  0
 24 26  1  0  0  0  0
 26 27  1  0  0  0  0
  1 28  1  0  0  0  0
  1 29  1  0  0  0  0
  2 30  1  0  0  0  0
  2 31  1  0  0  0  0
  3 32  1  0  0  0  0
  4 33  1  0  0  0  0
  5 34  1  0  0  0  0
  8 35  1  0  0  0  0
  9 36  1  0  0  0  0
 10 37  1  0  0  0  0
 13 38  1  0  0  0  0
 13 39  1  0  0  0  0
 16 40  1  0  0  0  0
 17 41  1  0  0  0  0
 18 42  1  0  0  0  0
 18 43  1  0  0  0  0
 20 44  1  0  0  0  0
 20 45  1  0  0  0  0
 21 46  1  0  0  0  0
 21 47  1  0  0  0  0
 27 48  1  0  0  0  0
 27 49  1  0  0  0  0
 27 50  1  0  0  0  0
M  END
