 xtb: 6.7.1 (edcfbbe)
          08092617053D

 35 36  0     0  0            999 V2000
    0.1468   -0.5963    0.3815 c   0  0  0  0  0  0  0  0  0  0  0  0
   -0.9188    0.4828    0.7191 c   0  0  0  0  0  0  0  0  0  0  0  0
   -0.3430    1.9056    0.5483 c   0  0  0  0  0  0  0  0  0  0  0  0
    0.5613    2.0958   -0.6690 c   0  0  0  0  0  0  0  0  0  0  0  0
    1.5310    0.9190   -0.8080 c   0  0  0  0  0  0  0  0  0  0  0  0
    0.7240   -0.3653   -1.0314 c   0  0  0  0  0  0  0  0  0  0  0  0
    1.3838   -0.3525    1.2722 c   0  0  0  0  0  0  0  0  0  0  0  0
    2.2124    0.6526    0.5110 c   0  0  0  0  0  0  0  0  0  0  0  0
    1.5298   -1.4268   -1.4970 o   0  0  0  0  0  0  0  0  0  0  0  0
   -0.4035   -2.0170    0.5756 c   0  0  0  0  0  0  0  0  0  0  0  0
    3.3439    1.1963    0.9215 c   0  0  0  0  0  0  0  0  0  0  0  0
   -2.2580    0.3147    0.0265 c   0  0  0  0  0  0  0  0  0  0  0  0
   -2.5115    0.6294   -1.2372 c   0  0  0  0  0  0  0  0  0  0  0  0
   -1.1252    0.3606    1.7895 h   0  0  0  0  0  0  0  0  0  0  0  0
   -1.3221   -2.4368   -0.4063 o   0  0  0  0  0  0  0  0  0  0  0  0
   -3.3659   -0.1648    0.9258 c   0  0  0  0  0  0  0  0  0  0  0  0
   -1.1708    2.6158    0.5014 h   0  0  0  0  0  0  0  0  0  0  0  0
    0.2416    2.1450    1.4385 h   0  0  0  0  0  0  0  0  0  0  0  0
   -0.0235    2.1855   -1.5847 h   0  0  0  0  0  0  0  0  0  0  0  0
    1.1266    3.0221   -0.5469 h   0  0  0  0  0  0  0  0  0  0  0  0
    2.2388    1.1011   -1.6199 h   0  0  0  0  0  0  0  0  0  0  0  0
   -0.0510   -0.2666   -1.7909 h   0  0  0  0  0  0  0  0  0  0  0  0
    1.9455   -1.2800    1.4124 h   0  0  0  0  0  0  0  0  0  0  0  0
    1.1148    0.0085    2.2650 h   0  0  0  0  0  0  0  0  0  0  0  0
    2.2791   -1.5226   -0.8947 h   0  0  0  0  0  0  0  0  0  0  0  0
   -0.8555   -2.0936    1.5775 h   0  0  0  0  0  0  0  0  0  0  0  0
    0.4135   -2.7417    0.5172 h   0  0  0  0  0  0  0  0  0  0  0  0
    3.7690    0.9654    1.8843 h   0  0  0  0  0  0  0  0  0  0  0  0
    3.8883    1.8980    0.3125 h   0  0  0  0  0  0  0  0  0  0  0  0
   -3.4995    0.5078   -1.6516 h   0  0  0  0  0  0  0  0  0  0  0  0
   -1.7732    1.0197   -1.9123 h   0  0  0  0  0  0  0  0  0  0  0  0
   -1.9686   -1.7280   -0.5439 h   0  0  0  0  0  0  0  0  0  0  0  0
   -4.2822   -0.3341    0.3652 h   0  0  0  0  0  0  0  0  0  0  0  0
   -3.0935   -1.0867    1.4373 h   0  0  0  0  0  0  0  0  0  0  0  0
   -3.5647    0.5874    1.6901 h   0  0  0  0  0  0  0  0  0  0  0  0
  1  2  1  0  0  0  0
  2  3  1  0  0  0  0
  3  4  1  0  0  0  0
  4  5  1  0  0  0  0
  1  6  1  0  0  0  0
  5  6  1  0  0  0  0
  1  7  1  0  0  0  0
  5  8  1  0  0  0  0
  7  8  1  0  0  0  0
  6  9  1  0  0  0  0
  1 10  1  0  0  0  0
  8 11  2  0  0  0  0
  2 12  1  0  0  0  0
 12 13  2  0  0  0  0
  2 14  1  0  0  0  0
 10 15  1  0  0  0  0
 12 16  1  0  0  0  0
  3 17  1  0  0  0  0
  3 18  1  0  0  0  0
  4 19  1  0  0  0  0
  4 20  1  0  0  0  0
  5 21  1  0  0  0  0
  6 22  1  0  0  0  0
  7 23  1  0  0  0  0
  7 24  1  0  0  0  0
  9 25  1  0  0  0  0
 10 26  1  0  0  0  0
 10 27  1  0  0  0  0
 11 28  1  0  0  0  0
 11 29  1  0  0  0  0
 13 30  1  0  0  0  0
 13 31  1  0  0  0  0
 15 32  1  0  0  0  0
 16 33  1  0  0  0  0
 16 34  1  0  0  0  0
 16 35  1  0  0  0  0
M  END
