 xtb: 6.7.1 (edcfbbe)
          08092616283D

 35 36  0     0  0            999 V2000
    0.0928   -0.6166    0.0985 c   0  0  0  0  0  0  0  0  0  0  0  0
   -0.9384    0.4000    0.6531 c   0  0  0  0  0  0  0  0  0  0  0  0
   -0.3287    1.8139    0.7406 c   0  0  0  0  0  0  0  0  0  0  0  0
    0.5665    2.2096   -0.4345 c   0  0  0  0  0  0  0  0  0  0  0  0
    1.4956    1.0545   -0.8199 c   0  0  0  0  0  0  0  0  0  0  0  0
    0.6363   -0.1363   -1.2555 c   0  0  0  0  0  0  0  0  0  0  0  0
    1.3640   -0.5936    0.9717 c   0  0  0  0  0  0  0  0  0  0  0  0
    2.1964    0.5266    0.4058 c   0  0  0  0  0  0  0  0  0  0  0  0
    1.4061   -1.1708   -1.8497 o   0  0  0  0  0  0  0  0  0  0  0  0
   -0.5035   -2.0255   -0.0084 c   0  0  0  0  0  0  0  0  0  0  0  0
    3.3436    0.9671    0.8891 c   0  0  0  0  0  0  0  0  0  0  0  0
   -2.2793    0.3620   -0.0536 c   0  0  0  0  0  0  0  0  0  0  0  0
   -2.5582    0.9666   -1.1988 c   0  0  0  0  0  0  0  0  0  0  0  0
   -1.1429    0.0800    1.6813 h   0  0  0  0  0  0  0  0  0  0  0  0
   -0.9554   -2.5399    1.2279 o   0  0  0  0  0  0  0  0  0  0  0  0
   -3.3496   -0.3788    0.6957 c   0  0  0  0  0  0  0  0  0  0  0  0
   -1.1381    2.5393    0.8416 h   0  0  0  0  0  0  0  0  0  0  0  0
    0.2737    1.8680    1.6497 h   0  0  0  0  0  0  0  0  0  0  0  0
   -0.0278    2.4935   -1.3036 h   0  0  0  0  0  0  0  0  0  0  0  0
    1.1646    3.0766   -0.1467 h   0  0  0  0  0  0  0  0  0  0  0  0
    2.1956    1.3737   -1.5970 h   0  0  0  0  0  0  0  0  0  0  0  0
   -0.1690    0.1480   -1.9417 h   0  0  0  0  0  0  0  0  0  0  0  0
    1.9069   -1.5354    0.8544 h   0  0  0  0  0  0  0  0  0  0  0  0
    1.1493   -0.4482    2.0308 h   0  0  0  0  0  0  0  0  0  0  0  0
    1.8735   -0.7978   -2.6076 h   0  0  0  0  0  0  0  0  0  0  0  0
    0.2473   -2.6930   -0.4487 h   0  0  0  0  0  0  0  0  0  0  0  0
   -1.3747   -2.0119   -0.6666 h   0  0  0  0  0  0  0  0  0  0  0  0
    3.7829    0.5494    1.7795 h   0  0  0  0  0  0  0  0  0  0  0  0
    3.8902    1.7646    0.4144 h   0  0  0  0  0  0  0  0  0  0  0  0
   -3.5450    0.9085   -1.6295 h   0  0  0  0  0  0  0  0  0  0  0  0
   -1.8475    1.5492   -1.7553 h   0  0  0  0  0  0  0  0  0  0  0  0
   -0.1978   -2.5881    1.8248 h   0  0  0  0  0  0  0  0  0  0  0  0
   -4.2410   -0.5072    0.0870 h   0  0  0  0  0  0  0  0  0  0  0  0
   -2.9916   -1.3545    1.0167 h   0  0  0  0  0  0  0  0  0  0  0  0
   -3.6210    0.1828    1.5906 h   0  0  0  0  0  0  0  0  0  0  0  0
  1  2  1  0  0  0  0
  2  3  1  0  0  0  0
  3  4  1  0  0  0  0
  4  5  1  0  0  0  0
  1  6  1  0  0  0  0
  5  6  1  0  0  0  0
  1  7  1  0  0  0  0
  5  8  1  0  0  0  0
  7  8  1  0  0  0  0
  6  9  1  0  0  0  0
  1 10  1  0  0  0  0
  8 11  2  0  0  0  0
  2 12  1  0  0  0  0
 12 13  2  0  0  0  0
  2 14  1  0  0  0  0
 10 15  1  0  0  0  0
 12 16  1  0  0  0  0
  3 17  1  0  0  0  0
  3 18  1  0  0  0  0
  4 19  1  0  0  0  0
  4 20  1  0  0  0  0
  5 21  1  0  0  0  0
  6 22  1  0  0  0  0
  7 23  1  0  0  0  0
  7 24  1  0  0  0  0
  9 25  1  0  0  0  0
 10 26  1  0  0  0  0
 10 27  1  0  0  0  0
 11 28  1  0  0  0  0
 11 29  1  0  0  0  0
 13 30  1  0  0  0  0
 13 31  1  0  0  0  0
 15 32  1  0  0  0  0
 16 33  1  0  0  0  0
 16 34  1  0  0  0  0
 16 35  1  0  0  0  0
M  END
