 xtb: 6.7.1 (edcfbbe)
          08092612003D

 54 57  0     0  0            999 V2000
    1.3229    1.5006    1.9572 c   0  0  0  0  0  0  0  0  0  0  0  0
    2.7141    1.3000    1.3726 c   0  0  0  0  0  0  0  0  0  0  0  0
    2.7417    0.6564   -0.0244 c   0  0  0  0  0  0  0  0  0  0  0  0
    1.6855   -0.5072   -0.1726 c   0  0  0  0  0  0  0  0  0  0  0  0
    0.2923   -0.3007    0.5394 c   0  0  0  0  0  0  0  0  0  0  0  0
    0.5557    0.1838    1.9778 c   0  0  0  0  0  0  0  0  0  0  0  0
    1.3734   -0.7899   -1.6499 c   0  0  0  0  0  0  0  0  0  0  0  0
    0.5799   -2.0852   -1.7966 c   0  0  0  0  0  0  0  0  0  0  0  0
   -0.7170   -2.0776   -0.9823 c   0  0  0  0  0  0  0  0  0  0  0  0
   -0.5552   -1.6488    0.5052 c   0  0  0  0  0  0  0  0  0  0  0  0
   -0.7945    0.6894   -0.0012 c   0  0  0  0  0  0  0  0  0  0  0  0
   -1.9363   -1.1717    0.9744 c   0  0  0  0  0  0  0  0  0  0  0  0
   -2.0457    0.1738    0.3621 c   0  0  0  0  0  0  0  0  0  0  0  0
   -3.2616    0.7946    0.1438 c   0  0  0  0  0  0  0  0  0  0  0  0
   -3.2669    2.0310   -0.4813 c   0  0  0  0  0  0  0  0  0  0  0  0
   -2.0598    2.5768   -0.8407 c   0  0  0  0  0  0  0  0  0  0  0  0
   -0.8263    1.9537   -0.6043 c   0  0  0  0  0  0  0  0  0  0  0  0
    0.2031    2.7185   -1.0255 o   0  0  0  0  0  0  0  0  0  0  0  0
   -4.4081    0.1571    0.5477 o   0  0  0  0  0  0  0  0  0  0  0  0
    2.5362    1.7068   -0.9665 o   0  0  0  0  0  0  0  0  0  0  0  0
    4.1989    0.2181   -0.2911 c   0  0  0  0  0  0  0  0  0  0  0  0
    2.4166   -1.7298    0.4132 c   0  0  0  0  0  0  0  0  0  0  0  0
   -1.4109   -3.4301   -1.1556 c   0  0  0  0  0  0  0  0  0  0  0  0
   -0.1876   -2.8196    1.4335 c   0  0  0  0  0  0  0  0  0  0  0  0
    1.4256    1.8797    2.9767 h   0  0  0  0  0  0  0  0  0  0  0  0
    0.7712    2.2474    1.3885 h   0  0  0  0  0  0  0  0  0  0  0  0
    3.2895    0.6704    2.0532 h   0  0  0  0  0  0  0  0  0  0  0  0
    3.2254    2.2613    1.2953 h   0  0  0  0  0  0  0  0  0  0  0  0
   -0.3894    0.3300    2.4997 h   0  0  0  0  0  0  0  0  0  0  0  0
    1.1380   -0.5511    2.5345 h   0  0  0  0  0  0  0  0  0  0  0  0
    0.7795    0.0288   -2.0641 h   0  0  0  0  0  0  0  0  0  0  0  0
    2.2955   -0.8788   -2.2330 h   0  0  0  0  0  0  0  0  0  0  0  0
    0.3170   -2.2157   -2.8499 h   0  0  0  0  0  0  0  0  0  0  0  0
    1.1995   -2.9389   -1.5206 h   0  0  0  0  0  0  0  0  0  0  0  0
   -1.3632   -1.3191   -1.4379 h   0  0  0  0  0  0  0  0  0  0  0  0
   -1.9844   -1.1108    2.0641 h   0  0  0  0  0  0  0  0  0  0  0  0
   -2.7468   -1.8230    0.6514 h   0  0  0  0  0  0  0  0  0  0  0  0
   -4.1927    2.5529   -0.6806 h   0  0  0  0  0  0  0  0  0  0  0  0
   -2.0143    3.5409   -1.3225 h   0  0  0  0  0  0  0  0  0  0  0  0
    1.0766    2.3036   -0.8623 h   0  0  0  0  0  0  0  0  0  0  0  0
   -5.1644    0.7093    0.3199 h   0  0  0  0  0  0  0  0  0  0  0  0
    2.6673    1.3600   -1.8562 h   0  0  0  0  0  0  0  0  0  0  0  0
    4.7961    1.1279   -0.3417 h   0  0  0  0  0  0  0  0  0  0  0  0
    4.6137   -0.4061    0.4914 h   0  0  0  0  0  0  0  0  0  0  0  0
    4.2919   -0.2955   -1.2463 h   0  0  0  0  0  0  0  0  0  0  0  0
    2.7891   -1.5248    1.4118 h   0  0  0  0  0  0  0  0  0  0  0  0
    1.7852   -2.5947    0.4619 h   0  0  0  0  0  0  0  0  0  0  0  0
    3.2564   -1.9937   -0.2223 h   0  0  0  0  0  0  0  0  0  0  0  0
   -2.3333   -3.4837   -0.5850 h   0  0  0  0  0  0  0  0  0  0  0  0
   -1.6577   -3.5777   -2.2051 h   0  0  0  0  0  0  0  0  0  0  0  0
   -0.7688   -4.2516   -0.8475 h   0  0  0  0  0  0  0  0  0  0  0  0
   -1.1094   -3.2779    1.7885 h   0  0  0  0  0  0  0  0  0  0  0  0
    0.3727   -3.6130    0.9475 h   0  0  0  0  0  0  0  0  0  0  0  0
    0.3634   -2.4853    2.3066 h   0  0  0  0  0  0  0  0  0  0  0  0
  1  2  1  0  0  0  0
  2  3  1  0  0  0  0
  3  4  1  0  0  0  0
  4  5  1  0  0  0  0
  1  6  1  0  0  0  0
  5  6  1  0  0  0  0
  4  7  1  0  0  0  0
  7  8  1  0  0  0  0
  8  9  1  0  0  0  0
  5 10  1  0  0  0  0
  9 10  1  0  0  0  0
  5 11  1  0  0  0  0
 10 12  1  0  0  0  0
 11 13  4  0  0  0  0
 12 13  1  0  0  0  0
 13 14  4  0  0  0  0
 14 15  4  0  0  0  0
 15 16  4  0  0  0  0
 11 17  4  0  0  0  0
 16 17  4  0  0  0  0
 17 18  1  0  0  0  0
 14 19  1  0  0  0  0
  3 20  1  0  0  0  0
  3 21  1  0  0  0  0
  4 22  1  0  0  0  0
  9 23  1  0  0  0  0
 10 24  1  0  0  0  0
  1 25  1  0  0  0  0
  1 26  1  0  0  0  0
  2 27  1  0  0  0  0
  2 28  1  0  0  0  0
  6 29  1  0  0  0  0
  6 30  1  0  0  0  0
  7 31  1  0  0  0  0
  7 32  1  0  0  0  0
  8 33  1  0  0  0  0
  8 34  1  0  0  0  0
  9 35  1  0  0  0  0
 12 36  1  0  0  0  0
 12 37  1  0  0  0  0
 15 38  1  0  0  0  0
 16 39  1  0  0  0  0
 18 40  1  0  0  0  0
 19 41  1  0  0  0  0
 20 42  1  0  0  0  0
 21 43  1  0  0  0  0
 21 44  1  0  0  0  0
 21 45  1  0  0  0  0
 22 46  1  0  0  0  0
 22 47  1  0  0  0  0
 22 48  1  0  0  0  0
 23 49  1  0  0  0  0
 23 50  1  0  0  0  0
 23 51  1  0  0  0  0
 24 52  1  0  0  0  0
 24 53  1  0  0  0  0
 24 54  1  0  0  0  0
M  END
