 xtb: 6.7.1 (edcfbbe)
          08092617483D

 35 36  0     0  0            999 V2000
    0.1133   -0.6895   -0.2581 c   0  0  0  0  0  0  0  0  0  0  0  0
    0.5950    0.6242   -0.9321 c   0  0  0  0  0  0  0  0  0  0  0  0
   -0.4929    1.7114   -0.8436 c   0  0  0  0  0  0  0  0  0  0  0  0
   -1.2260    1.7537    0.4947 c   0  0  0  0  0  0  0  0  0  0  0  0
   -1.6830    0.3461    0.8931 c   0  0  0  0  0  0  0  0  0  0  0  0
   -0.4421   -0.5127    1.1680 c   0  0  0  0  0  0  0  0  0  0  0  0
   -1.1791   -1.1458   -0.9654 c   0  0  0  0  0  0  0  0  0  0  0  0
   -2.2822   -0.3771   -0.2857 c   0  0  0  0  0  0  0  0  0  0  0  0
    0.4705   -0.0034    2.1076 o   0  0  0  0  0  0  0  0  0  0  0  0
    1.2135   -1.7599   -0.3390 c   0  0  0  0  0  0  0  0  0  0  0  0
   -3.5500   -0.3385   -0.6521 c   0  0  0  0  0  0  0  0  0  0  0  0
    1.9757    1.1111   -0.5355 c   0  0  0  0  0  0  0  0  0  0  0  0
    3.0238    0.7643   -1.2704 c   0  0  0  0  0  0  0  0  0  0  0  0
    0.6899    0.3639   -1.9943 h   0  0  0  0  0  0  0  0  0  0  0  0
    0.8198   -3.0130    0.1672 o   0  0  0  0  0  0  0  0  0  0  0  0
    2.1481    2.0226    0.6389 c   0  0  0  0  0  0  0  0  0  0  0  0
   -0.0485    2.6847   -1.0580 h   0  0  0  0  0  0  0  0  0  0  0  0
   -1.2332    1.5199   -1.6233 h   0  0  0  0  0  0  0  0  0  0  0  0
   -0.5771    2.1465    1.2786 h   0  0  0  0  0  0  0  0  0  0  0  0
   -2.0930    2.4118    0.4074 h   0  0  0  0  0  0  0  0  0  0  0  0
   -2.3630    0.3964    1.7489 h   0  0  0  0  0  0  0  0  0  0  0  0
   -0.7884   -1.5039    1.5149 h   0  0  0  0  0  0  0  0  0  0  0  0
   -1.1536   -0.9740   -2.0411 h   0  0  0  0  0  0  0  0  0  0  0  0
   -1.3127   -2.2195   -0.8060 h   0  0  0  0  0  0  0  0  0  0  0  0
   -0.0083    0.1768    2.9237 h   0  0  0  0  0  0  0  0  0  0  0  0
    2.1082   -1.3957    0.1787 h   0  0  0  0  0  0  0  0  0  0  0  0
    1.4644   -1.9354   -1.3878 h   0  0  0  0  0  0  0  0  0  0  0  0
   -3.9060   -0.8734   -1.5162 h   0  0  0  0  0  0  0  0  0  0  0  0
   -4.2827    0.2279   -0.1027 h   0  0  0  0  0  0  0  0  0  0  0  0
    4.0191    1.0998   -1.0320 h   0  0  0  0  0  0  0  0  0  0  0  0
    2.9393    0.1238   -2.1323 h   0  0  0  0  0  0  0  0  0  0  0  0
    0.7681   -2.9495    1.1264 h   0  0  0  0  0  0  0  0  0  0  0  0
    1.5742    2.9386    0.5098 h   0  0  0  0  0  0  0  0  0  0  0  0
    1.8087    1.5276    1.5436 h   0  0  0  0  0  0  0  0  0  0  0  0
    3.1956    2.2892    0.7556 h   0  0  0  0  0  0  0  0  0  0  0  0
  1  2  1  0  0  0  0
  2  3  1  0  0  0  0
  3  4  1  0  0  0  0
  4  5  1  0  0  0  0
  1  6  1  0  0  0  0
  5  6  1  0  0  0  0
  1  7  1  0  0  0  0
  5  8  1  0  0  0  0
  7  8  1  0  0  0  0
  6  9  1  0  0  0  0
  1 10  1  0  0  0  0
  8 11  2  0  0  0  0
  2 12  1  0  0  0  0
 12 13  2  0  0  0  0
  2 14  1  0  0  0  0
 10 15  1  0  0  0  0
 12 16  1  0  0  0  0
  3 17  1  0  0  0  0
  3 18  1  0  0  0  0
  4 19  1  0  0  0  0
  4 20  1  0  0  0  0
  5 21  1  0  0  0  0
  6 22  1  0  0  0  0
  7 23  1  0  0  0  0
  7 24  1  0  0  0  0
  9 25  1  0  0  0  0
 10 26  1  0  0  0  0
 10 27  1  0  0  0  0
 11 28  1  0  0  0  0
 11 29  1  0  0  0  0
 13 30  1  0  0  0  0
 13 31  1  0  0  0  0
 15 32  1  0  0  0  0
 16 33  1  0  0  0  0
 16 34  1  0  0  0  0
 16 35  1  0  0  0  0
M  END
