 xtb: 6.7.1 (edcfbbe)
          08092617053D

 35 36  0     0  0            999 V2000
    0.0862   -0.6462    0.0827 c   0  0  0  0  0  0  0  0  0  0  0  0
   -0.9542    0.3232    0.7074 c   0  0  0  0  0  0  0  0  0  0  0  0
   -0.3531    1.7316    0.8709 c   0  0  0  0  0  0  0  0  0  0  0  0
    0.4939    2.2051   -0.3109 c   0  0  0  0  0  0  0  0  0  0  0  0
    1.4476    1.0957   -0.7664 c   0  0  0  0  0  0  0  0  0  0  0  0
    0.6139   -0.0920   -1.2559 c   0  0  0  0  0  0  0  0  0  0  0  0
    1.3621   -0.6364    0.9498 c   0  0  0  0  0  0  0  0  0  0  0  0
    2.1771    0.5151    0.4196 c   0  0  0  0  0  0  0  0  0  0  0  0
    1.3813   -1.0258   -1.9910 o   0  0  0  0  0  0  0  0  0  0  0  0
   -0.4865   -2.0562   -0.0647 c   0  0  0  0  0  0  0  0  0  0  0  0
    3.3343    0.9363    0.8975 c   0  0  0  0  0  0  0  0  0  0  0  0
   -2.3171    0.3110    0.0411 c   0  0  0  0  0  0  0  0  0  0  0  0
   -3.2669   -0.4776    0.5273 c   0  0  0  0  0  0  0  0  0  0  0  0
   -1.1276   -0.0725    1.7149 h   0  0  0  0  0  0  0  0  0  0  0  0
   -0.7655   -2.5881    1.2191 o   0  0  0  0  0  0  0  0  0  0  0  0
   -2.6181    1.2175   -1.1159 c   0  0  0  0  0  0  0  0  0  0  0  0
   -1.1569    2.4441    1.0637 h   0  0  0  0  0  0  0  0  0  0  0  0
    0.2843    1.7264    1.7571 h   0  0  0  0  0  0  0  0  0  0  0  0
   -0.1309    2.4965   -1.1552 h   0  0  0  0  0  0  0  0  0  0  0  0
    1.0720    3.0794   -0.0042 h   0  0  0  0  0  0  0  0  0  0  0  0
    2.1244    1.4678   -1.5393 h   0  0  0  0  0  0  0  0  0  0  0  0
   -0.1822    0.1940   -1.9415 h   0  0  0  0  0  0  0  0  0  0  0  0
    1.9044   -1.5787    0.8348 h   0  0  0  0  0  0  0  0  0  0  0  0
    1.1346   -0.5343    2.0101 h   0  0  0  0  0  0  0  0  0  0  0  0
    2.1751   -1.2265   -1.4774 h   0  0  0  0  0  0  0  0  0  0  0  0
    0.2455   -2.6888   -0.5852 h   0  0  0  0  0  0  0  0  0  0  0  0
   -1.4001   -2.0178   -0.6713 h   0  0  0  0  0  0  0  0  0  0  0  0
    3.7935    0.4780    1.7577 h   0  0  0  0  0  0  0  0  0  0  0  0
    3.8653    1.7607    0.4520 h   0  0  0  0  0  0  0  0  0  0  0  0
   -4.2537   -0.5169    0.0952 h   0  0  0  0  0  0  0  0  0  0  0  0
   -3.0923   -1.1270    1.3689 h   0  0  0  0  0  0  0  0  0  0  0  0
   -1.1523   -3.4640    1.1068 h   0  0  0  0  0  0  0  0  0  0  0  0
   -2.4008    2.2532   -0.8653 h   0  0  0  0  0  0  0  0  0  0  0  0
   -2.0343    0.9524   -1.9950 h   0  0  0  0  0  0  0  0  0  0  0  0
   -3.6713    1.1439   -1.3782 h   0  0  0  0  0  0  0  0  0  0  0  0
  1  2  1  0  0  0  0
  2  3  1  0  0  0  0
  3  4  1  0  0  0  0
  4  5  1  0  0  0  0
  1  6  1  0  0  0  0
  5  6  1  0  0  0  0
  1  7  1  0  0  0  0
  5  8  1  0  0  0  0
  7  8  1  0  0  0  0
  6  9  1  0  0  0  0
  1 10  1  0  0  0  0
  8 11  2  0  0  0  0
  2 12  1  0  0  0  0
 12 13  2  0  0  0  0
  2 14  1  0  0  0  0
 10 15  1  0  0  0  0
 12 16  1  0  0  0  0
  3 17  1  0  0  0  0
  3 18  1  0  0  0  0
  4 19  1  0  0  0  0
  4 20  1  0  0  0  0
  5 21  1  0  0  0  0
  6 22  1  0  0  0  0
  7 23  1  0  0  0  0
  7 24  1  0  0  0  0
  9 25  1  0  0  0  0
 10 26  1  0  0  0  0
 10 27  1  0  0  0  0
 11 28  1  0  0  0  0
 11 29  1  0  0  0  0
 13 30  1  0  0  0  0
 13 31  1  0  0  0  0
 15 32  1  0  0  0  0
 16 33  1  0  0  0  0
 16 34  1  0  0  0  0
 16 35  1  0  0  0  0
M  END
