 xtb: 6.7.1 (edcfbbe)
          08092617053D

 35 36  0     0  0            999 V2000
    0.1132   -0.6447    0.0947 c   0  0  0  0  0  0  0  0  0  0  0  0
   -0.8998    0.3705    0.6848 c   0  0  0  0  0  0  0  0  0  0  0  0
   -0.3330    1.8087    0.7006 c   0  0  0  0  0  0  0  0  0  0  0  0
    0.5535    2.1851   -0.4873 c   0  0  0  0  0  0  0  0  0  0  0  0
    1.5087    1.0369   -0.8233 c   0  0  0  0  0  0  0  0  0  0  0  0
    0.6655   -0.1600   -1.2625 c   0  0  0  0  0  0  0  0  0  0  0  0
    1.3894   -0.6254    0.9580 c   0  0  0  0  0  0  0  0  0  0  0  0
    2.1900    0.5318    0.4231 c   0  0  0  0  0  0  0  0  0  0  0  0
    1.5150   -1.1028   -1.8959 o   0  0  0  0  0  0  0  0  0  0  0  0
   -0.5084   -2.0476   -0.0023 c   0  0  0  0  0  0  0  0  0  0  0  0
    3.2978    1.0221    0.9483 c   0  0  0  0  0  0  0  0  0  0  0  0
   -2.3019    0.3023    0.1122 c   0  0  0  0  0  0  0  0  0  0  0  0
   -3.3058   -0.0926    0.8866 c   0  0  0  0  0  0  0  0  0  0  0  0
   -1.0085    0.0866    1.7388 h   0  0  0  0  0  0  0  0  0  0  0  0
   -1.0225   -2.5360    1.2160 o   0  0  0  0  0  0  0  0  0  0  0  0
   -2.5736    0.7271   -1.3001 c   0  0  0  0  0  0  0  0  0  0  0  0
   -1.1638    2.5129    0.7813 h   0  0  0  0  0  0  0  0  0  0  0  0
    0.2698    1.9156    1.6041 h   0  0  0  0  0  0  0  0  0  0  0  0
   -0.0400    2.4205   -1.3723 h   0  0  0  0  0  0  0  0  0  0  0  0
    1.1276    3.0763   -0.2277 h   0  0  0  0  0  0  0  0  0  0  0  0
    2.2197    1.3316   -1.5968 h   0  0  0  0  0  0  0  0  0  0  0  0
   -0.1213    0.1351   -1.9620 h   0  0  0  0  0  0  0  0  0  0  0  0
    1.9484   -1.5520    0.8078 h   0  0  0  0  0  0  0  0  0  0  0  0
    1.1788   -0.5364    2.0231 h   0  0  0  0  0  0  0  0  0  0  0  0
    0.9853   -1.8485   -2.2001 h   0  0  0  0  0  0  0  0  0  0  0  0
    0.2607   -2.7703   -0.2894 h   0  0  0  0  0  0  0  0  0  0  0  0
   -1.2982   -2.0495   -0.7677 h   0  0  0  0  0  0  0  0  0  0  0  0
    3.7244    0.6178    1.8512 h   0  0  0  0  0  0  0  0  0  0  0  0
    3.8253    1.8438    0.4941 h   0  0  0  0  0  0  0  0  0  0  0  0
   -4.3203   -0.1314    0.5251 h   0  0  0  0  0  0  0  0  0  0  0  0
   -3.1713   -0.3759    1.9187 h   0  0  0  0  0  0  0  0  0  0  0  0
   -1.7840   -1.9915    1.4569 h   0  0  0  0  0  0  0  0  0  0  0  0
   -2.0718    1.6632   -1.5283 h   0  0  0  0  0  0  0  0  0  0  0  0
   -2.2314   -0.0263   -2.0087 h   0  0  0  0  0  0  0  0  0  0  0  0
   -3.6427    0.8617   -1.4498 h   0  0  0  0  0  0  0  0  0  0  0  0
  1  2  1  0  0  0  0
  2  3  1  0  0  0  0
  3  4  1  0  0  0  0
  4  5  1  0  0  0  0
  1  6  1  0  0  0  0
  5  6  1  0  0  0  0
  1  7  1  0  0  0  0
  5  8  1  0  0  0  0
  7  8  1  0  0  0  0
  6  9  1  0  0  0  0
  1 10  1  0  0  0  0
  8 11  2  0  0  0  0
  2 12  1  0  0  0  0
 12 13  2  0  0  0  0
  2 14  1  0  0  0  0
 10 15  1  0  0  0  0
 12 16  1  0  0  0  0
  3 17  1  0  0  0  0
  3 18  1  0  0  0  0
  4 19  1  0  0  0  0
  4 20  1  0  0  0  0
  5 21  1  0  0  0  0
  6 22  1  0  0  0  0
  7 23  1  0  0  0  0
  7 24  1  0  0  0  0
  9 25  1  0  0  0  0
 10 26  1  0  0  0  0
 10 27  1  0  0  0  0
 11 28  1  0  0  0  0
 11 29  1  0  0  0  0
 13 30  1  0  0  0  0
 13 31  1  0  0  0  0
 15 32  1  0  0  0  0
 16 33  1  0  0  0  0
 16 34  1  0  0  0  0
 16 35  1  0  0  0  0
M  END
