 xtb: 6.7.1 (edcfbbe)
          08092617483D

 35 36  0     0  0            999 V2000
    0.0127   -0.7688   -0.0362 c   0  0  0  0  0  0  0  0  0  0  0  0
    0.5917    0.4628   -0.7883 c   0  0  0  0  0  0  0  0  0  0  0  0
   -0.4204    1.6278   -0.8179 c   0  0  0  0  0  0  0  0  0  0  0  0
   -1.2488    1.7782    0.4550 c   0  0  0  0  0  0  0  0  0  0  0  0
   -1.8239    0.4215    0.8799 c   0  0  0  0  0  0  0  0  0  0  0  0
   -0.6567   -0.4701    1.3196 c   0  0  0  0  0  0  0  0  0  0  0  0
   -1.2370   -1.2322   -0.8154 c   0  0  0  0  0  0  0  0  0  0  0  0
   -2.3488   -0.3494   -0.3045 c   0  0  0  0  0  0  0  0  0  0  0  0
    0.1904    0.0688    2.3063 o   0  0  0  0  0  0  0  0  0  0  0  0
    1.0662   -1.8732    0.1275 c   0  0  0  0  0  0  0  0  0  0  0  0
   -3.5705   -0.2705   -0.7998 c   0  0  0  0  0  0  0  0  0  0  0  0
    1.9892    0.9064   -0.4019 c   0  0  0  0  0  0  0  0  0  0  0  0
    3.0054    0.6471   -1.2168 c   0  0  0  0  0  0  0  0  0  0  0  0
    0.6889    0.1220   -1.8271 h   0  0  0  0  0  0  0  0  0  0  0  0
    1.5990   -2.3495   -1.0873 o   0  0  0  0  0  0  0  0  0  0  0  0
    2.2101    1.7032    0.8442 c   0  0  0  0  0  0  0  0  0  0  0  0
    0.1118    2.5573   -1.0283 h   0  0  0  0  0  0  0  0  0  0  0  0
   -1.1109    1.4577   -1.6466 h   0  0  0  0  0  0  0  0  0  0  0  0
   -0.6349    2.1625    1.2710 h   0  0  0  0  0  0  0  0  0  0  0  0
   -2.0594    2.4859    0.2717 h   0  0  0  0  0  0  0  0  0  0  0  0
   -2.5753    0.5561    1.6623 h   0  0  0  0  0  0  0  0  0  0  0  0
   -1.0575   -1.4272    1.6960 h   0  0  0  0  0  0  0  0  0  0  0  0
   -1.1123   -1.1627   -1.8951 h   0  0  0  0  0  0  0  0  0  0  0  0
   -1.4540   -2.2777   -0.5819 h   0  0  0  0  0  0  0  0  0  0  0  0
   -0.3428    0.2487    3.0908 h   0  0  0  0  0  0  0  0  0  0  0  0
    0.6068   -2.7445    0.6035 h   0  0  0  0  0  0  0  0  0  0  0  0
    1.8659   -1.5053    0.7828 h   0  0  0  0  0  0  0  0  0  0  0  0
   -3.8721   -0.8485   -1.6573 h   0  0  0  0  0  0  0  0  0  0  0  0
   -4.3169    0.3758   -0.3697 h   0  0  0  0  0  0  0  0  0  0  0  0
    4.0095    0.9642   -0.9875 h   0  0  0  0  0  0  0  0  0  0  0  0
    2.8888    0.1318   -2.1579 h   0  0  0  0  0  0  0  0  0  0  0  0
    2.1465   -1.6464   -1.4615 h   0  0  0  0  0  0  0  0  0  0  0  0
    1.6802    2.6524    0.7826 h   0  0  0  0  0  0  0  0  0  0  0  0
    1.8375    1.1663    1.7105 h   0  0  0  0  0  0  0  0  0  0  0  0
    3.2691    1.9098    0.9801 h   0  0  0  0  0  0  0  0  0  0  0  0
  1  2  1  0  0  0  0
  2  3  1  0  0  0  0
  3  4  1  0  0  0  0
  4  5  1  0  0  0  0
  1  6  1  0  0  0  0
  5  6  1  0  0  0  0
  1  7  1  0  0  0  0
  5  8  1  0  0  0  0
  7  8  1  0  0  0  0
  6  9  1  0  0  0  0
  1 10  1  0  0  0  0
  8 11  2  0  0  0  0
  2 12  1  0  0  0  0
 12 13  2  0  0  0  0
  2 14  1  0  0  0  0
 10 15  1  0  0  0  0
 12 16  1  0  0  0  0
  3 17  1  0  0  0  0
  3 18  1  0  0  0  0
  4 19  1  0  0  0  0
  4 20  1  0  0  0  0
  5 21  1  0  0  0  0
  6 22  1  0  0  0  0
  7 23  1  0  0  0  0
  7 24  1  0  0  0  0
  9 25  1  0  0  0  0
 10 26  1  0  0  0  0
 10 27  1  0  0  0  0
 11 28  1  0  0  0  0
 11 29  1  0  0  0  0
 13 30  1  0  0  0  0
 13 31  1  0  0  0  0
 15 32  1  0  0  0  0
 16 33  1  0  0  0  0
 16 34  1  0  0  0  0
 16 35  1  0  0  0  0
M  END
