 xtb: 6.7.1 (edcfbbe)
          08092615283D

 35 36  0     0  0            999 V2000
    0.1340   -0.5675    0.4248 c   0  0  0  0  0  0  0  0  0  0  0  0
   -0.9395    0.5095    0.7312 c   0  0  0  0  0  0  0  0  0  0  0  0
   -0.3463    1.9255    0.5582 c   0  0  0  0  0  0  0  0  0  0  0  0
    0.5824    2.1107   -0.6442 c   0  0  0  0  0  0  0  0  0  0  0  0
    1.5255    0.9136   -0.8012 c   0  0  0  0  0  0  0  0  0  0  0  0
    0.6766   -0.3447   -1.0019 c   0  0  0  0  0  0  0  0  0  0  0  0
    1.3773   -0.3109    1.3022 c   0  0  0  0  0  0  0  0  0  0  0  0
    2.2270    0.6454    0.5052 c   0  0  0  0  0  0  0  0  0  0  0  0
    1.4175   -1.4438   -1.5011 o   0  0  0  0  0  0  0  0  0  0  0  0
   -0.3892   -1.9980    0.6306 c   0  0  0  0  0  0  0  0  0  0  0  0
    3.3881    1.1523    0.8789 c   0  0  0  0  0  0  0  0  0  0  0  0
   -2.2532    0.3213   -0.0033 c   0  0  0  0  0  0  0  0  0  0  0  0
   -2.5009    0.7473   -1.2330 c   0  0  0  0  0  0  0  0  0  0  0  0
   -1.1758    0.3982    1.7964 h   0  0  0  0  0  0  0  0  0  0  0  0
   -1.3022   -2.4267   -0.3546 o   0  0  0  0  0  0  0  0  0  0  0  0
   -3.3393   -0.3398    0.7960 c   0  0  0  0  0  0  0  0  0  0  0  0
   -1.1673    2.6416    0.4937 h   0  0  0  0  0  0  0  0  0  0  0  0
    0.2236    2.1653    1.4580 h   0  0  0  0  0  0  0  0  0  0  0  0
    0.0141    2.2349   -1.5661 h   0  0  0  0  0  0  0  0  0  0  0  0
    1.1711    3.0188   -0.4974 h   0  0  0  0  0  0  0  0  0  0  0  0
    2.2183    1.0804   -1.6294 h   0  0  0  0  0  0  0  0  0  0  0  0
   -0.1247   -0.2005   -1.7278 h   0  0  0  0  0  0  0  0  0  0  0  0
    1.9227   -1.2419    1.4798 h   0  0  0  0  0  0  0  0  0  0  0  0
    1.1144    0.0936    2.2796 h   0  0  0  0  0  0  0  0  0  0  0  0
    2.2199   -1.5304   -0.9703 h   0  0  0  0  0  0  0  0  0  0  0  0
   -0.9152   -2.0711    1.5857 h   0  0  0  0  0  0  0  0  0  0  0  0
    0.4635   -2.6916    0.6583 h   0  0  0  0  0  0  0  0  0  0  0  0
    3.8251    0.9251    1.8370 h   0  0  0  0  0  0  0  0  0  0  0  0
    3.9448    1.8205    0.2438 h   0  0  0  0  0  0  0  0  0  0  0  0
   -3.4687    0.5999   -1.6840 h   0  0  0  0  0  0  0  0  0  0  0  0
   -1.7805    1.2534   -1.8486 h   0  0  0  0  0  0  0  0  0  0  0  0
   -0.8395   -2.4138   -1.2024 h   0  0  0  0  0  0  0  0  0  0  0  0
   -4.2848   -0.3095    0.2608 h   0  0  0  0  0  0  0  0  0  0  0  0
   -3.0884   -1.3820    0.9804 h   0  0  0  0  0  0  0  0  0  0  0  0
   -3.4638    0.1588    1.7568 h   0  0  0  0  0  0  0  0  0  0  0  0
  1  2  1  0  0  0  0
  2  3  1  0  0  0  0
  3  4  1  0  0  0  0
  4  5  1  0  0  0  0
  1  6  1  0  0  0  0
  5  6  1  0  0  0  0
  1  7  1  0  0  0  0
  5  8  1  0  0  0  0
  7  8  1  0  0  0  0
  6  9  1  0  0  0  0
  1 10  1  0  0  0  0
  8 11  2  0  0  0  0
  2 12  1  0  0  0  0
 12 13  2  0  0  0  0
  2 14  1  0  0  0  0
 10 15  1  0  0  0  0
 12 16  1  0  0  0  0
  3 17  1  0  0  0  0
  3 18  1  0  0  0  0
  4 19  1  0  0  0  0
  4 20  1  0  0  0  0
  5 21  1  0  0  0  0
  6 22  1  0  0  0  0
  7 23  1  0  0  0  0
  7 24  1  0  0  0  0
  9 25  1  0  0  0  0
 10 26  1  0  0  0  0
 10 27  1  0  0  0  0
 11 28  1  0  0  0  0
 11 29  1  0  0  0  0
 13 30  1  0  0  0  0
 13 31  1  0  0  0  0
 15 32  1  0  0  0  0
 16 33  1  0  0  0  0
 16 34  1  0  0  0  0
 16 35  1  0  0  0  0
M  END
