 xtb: 6.7.1 (edcfbbe)
          08092615283D

 35 36  0     0  0            999 V2000
   -0.0428   -0.5619    0.3086 c   0  0  0  0  0  0  0  0  0  0  0  0
   -1.0159    0.5691    0.7282 c   0  0  0  0  0  0  0  0  0  0  0  0
   -0.3546    1.9587    0.5975 c   0  0  0  0  0  0  0  0  0  0  0  0
    0.5654    2.1385   -0.6109 c   0  0  0  0  0  0  0  0  0  0  0  0
    1.4493    0.9036   -0.8084 c   0  0  0  0  0  0  0  0  0  0  0  0
    0.5418   -0.2934   -1.0950 c   0  0  0  0  0  0  0  0  0  0  0  0
    1.2205   -0.4838    1.1883 c   0  0  0  0  0  0  0  0  0  0  0  0
    2.1128    0.5092    0.4893 c   0  0  0  0  0  0  0  0  0  0  0  0
    1.2649   -1.3927   -1.6320 o   0  0  0  0  0  0  0  0  0  0  0  0
   -0.7539   -1.9195    0.4283 c   0  0  0  0  0  0  0  0  0  0  0  0
    3.2784    0.9528    0.9247 c   0  0  0  0  0  0  0  0  0  0  0  0
   -2.3969    0.5048    0.1065 c   0  0  0  0  0  0  0  0  0  0  0  0
   -3.4317    0.1534    0.8585 c   0  0  0  0  0  0  0  0  0  0  0  0
   -1.1884    0.4113    1.7997 h   0  0  0  0  0  0  0  0  0  0  0  0
    0.0975   -3.0274    0.2379 o   0  0  0  0  0  0  0  0  0  0  0  0
   -2.6130    0.8813   -1.3293 c   0  0  0  0  0  0  0  0  0  0  0  0
   -1.1356    2.7214    0.5844 h   0  0  0  0  0  0  0  0  0  0  0  0
    0.2437    2.1280    1.4947 h   0  0  0  0  0  0  0  0  0  0  0  0
   -0.0048    2.3061   -1.5257 h   0  0  0  0  0  0  0  0  0  0  0  0
    1.1936    3.0164   -0.4469 h   0  0  0  0  0  0  0  0  0  0  0  0
    2.1669    1.0781   -1.6142 h   0  0  0  0  0  0  0  0  0  0  0  0
   -0.2205   -0.0810   -1.8426 h   0  0  0  0  0  0  0  0  0  0  0  0
    1.6953   -1.4683    1.2397 h   0  0  0  0  0  0  0  0  0  0  0  0
    0.9950   -0.1846    2.2118 h   0  0  0  0  0  0  0  0  0  0  0  0
    2.0969   -1.4650   -1.1444 h   0  0  0  0  0  0  0  0  0  0  0  0
   -1.5854   -1.9576   -0.2884 h   0  0  0  0  0  0  0  0  0  0  0  0
   -1.1653   -2.0314    1.4351 h   0  0  0  0  0  0  0  0  0  0  0  0
    3.6897    0.6349    1.8683 h   0  0  0  0  0  0  0  0  0  0  0  0
    3.8649    1.6564    0.3580 h   0  0  0  0  0  0  0  0  0  0  0  0
   -4.4339    0.1159    0.4645 h   0  0  0  0  0  0  0  0  0  0  0  0
   -3.3259   -0.1211    1.8947 h   0  0  0  0  0  0  0  0  0  0  0  0
    0.5079   -2.9104   -0.6358 h   0  0  0  0  0  0  0  0  0  0  0  0
   -2.0792    1.7922   -1.5845 h   0  0  0  0  0  0  0  0  0  0  0  0
   -2.2754    0.0867   -1.9936 h   0  0  0  0  0  0  0  0  0  0  0  0
   -3.6731    1.0384   -1.5161 h   0  0  0  0  0  0  0  0  0  0  0  0
  1  2  1  0  0  0  0
  2  3  1  0  0  0  0
  3  4  1  0  0  0  0
  4  5  1  0  0  0  0
  1  6  1  0  0  0  0
  5  6  1  0  0  0  0
  1  7  1  0  0  0  0
  5  8  1  0  0  0  0
  7  8  1  0  0  0  0
  6  9  1  0  0  0  0
  1 10  1  0  0  0  0
  8 11  2  0  0  0  0
  2 12  1  0  0  0  0
 12 13  2  0  0  0  0
  2 14  1  0  0  0  0
 10 15  1  0  0  0  0
 12 16  1  0  0  0  0
  3 17  1  0  0  0  0
  3 18  1  0  0  0  0
  4 19  1  0  0  0  0
  4 20  1  0  0  0  0
  5 21  1  0  0  0  0
  6 22  1  0  0  0  0
  7 23  1  0  0  0  0
  7 24  1  0  0  0  0
  9 25  1  0  0  0  0
 10 26  1  0  0  0  0
 10 27  1  0  0  0  0
 11 28  1  0  0  0  0
 11 29  1  0  0  0  0
 13 30  1  0  0  0  0
 13 31  1  0  0  0  0
 15 32  1  0  0  0  0
 16 33  1  0  0  0  0
 16 34  1  0  0  0  0
 16 35  1  0  0  0  0
M  END
