 xtb: 6.7.1 (edcfbbe)
          08092618423D

 35 36  0     0  0            999 V2000
    0.0164   -0.7469   -0.0138 c   0  0  0  0  0  0  0  0  0  0  0  0
    0.6199    0.4696   -0.7640 c   0  0  0  0  0  0  0  0  0  0  0  0
   -0.4136    1.6101   -0.8779 c   0  0  0  0  0  0  0  0  0  0  0  0
   -1.2986    1.8080    0.3521 c   0  0  0  0  0  0  0  0  0  0  0  0
   -1.8258    0.4647    0.8683 c   0  0  0  0  0  0  0  0  0  0  0  0
   -0.6319   -0.3731    1.3371 c   0  0  0  0  0  0  0  0  0  0  0  0
   -1.2336   -1.2293   -0.7813 c   0  0  0  0  0  0  0  0  0  0  0  0
   -2.3589   -0.3651   -0.2678 c   0  0  0  0  0  0  0  0  0  0  0  0
    0.1495    0.3093    2.2840 o   0  0  0  0  0  0  0  0  0  0  0  0
    1.0446   -1.8727    0.1602 c   0  0  0  0  0  0  0  0  0  0  0  0
   -3.5928   -0.3405   -0.7375 c   0  0  0  0  0  0  0  0  0  0  0  0
    1.9768    0.9347   -0.2670 c   0  0  0  0  0  0  0  0  0  0  0  0
    2.1722    1.7678    0.7434 c   0  0  0  0  0  0  0  0  0  0  0  0
    0.8047    0.1122   -1.7846 h   0  0  0  0  0  0  0  0  0  0  0  0
    1.5405   -2.3852   -1.0584 o   0  0  0  0  0  0  0  0  0  0  0  0
    3.1346    0.4518   -1.0955 c   0  0  0  0  0  0  0  0  0  0  0  0
    0.1138    2.5396   -1.0990 h   0  0  0  0  0  0  0  0  0  0  0  0
   -1.0671    1.3946   -1.7265 h   0  0  0  0  0  0  0  0  0  0  0  0
   -0.7486    2.2867    1.1613 h   0  0  0  0  0  0  0  0  0  0  0  0
   -2.1386    2.4518    0.0847 h   0  0  0  0  0  0  0  0  0  0  0  0
   -2.5558    0.6284    1.6624 h   0  0  0  0  0  0  0  0  0  0  0  0
   -1.0071   -1.3058    1.7973 h   0  0  0  0  0  0  0  0  0  0  0  0
   -1.1246   -1.1472   -1.8631 h   0  0  0  0  0  0  0  0  0  0  0  0
   -1.4443   -2.2760   -0.5398 h   0  0  0  0  0  0  0  0  0  0  0  0
    0.9808   -0.1641    2.4016 h   0  0  0  0  0  0  0  0  0  0  0  0
    0.5916   -2.6861    0.7481 h   0  0  0  0  0  0  0  0  0  0  0  0
    1.9226   -1.5079    0.6995 h   0  0  0  0  0  0  0  0  0  0  0  0
   -3.8971   -0.9542   -1.5691 h   0  0  0  0  0  0  0  0  0  0  0  0
   -4.3478    0.2963   -0.3092 h   0  0  0  0  0  0  0  0  0  0  0  0
    3.1667    2.0830    1.0169 h   0  0  0  0  0  0  0  0  0  0  0  0
    1.3744    2.1599    1.3455 h   0  0  0  0  0  0  0  0  0  0  0  0
    0.7917   -2.7017   -1.5799 h   0  0  0  0  0  0  0  0  0  0  0  0
    3.0767   -0.6220   -1.2608 h   0  0  0  0  0  0  0  0  0  0  0  0
    3.1096    0.9360   -2.0727 h   0  0  0  0  0  0  0  0  0  0  0  0
    4.0834    0.6890   -0.6203 h   0  0  0  0  0  0  0  0  0  0  0  0
  1  2  1  0  0  0  0
  2  3  1  0  0  0  0
  3  4  1  0  0  0  0
  4  5  1  0  0  0  0
  1  6  1  0  0  0  0
  5  6  1  0  0  0  0
  1  7  1  0  0  0  0
  5  8  1  0  0  0  0
  7  8  1  0  0  0  0
  6  9  1  0  0  0  0
  1 10  1  0  0  0  0
  8 11  2  0  0  0  0
  2 12  1  0  0  0  0
 12 13  2  0  0  0  0
  2 14  1  0  0  0  0
 10 15  1  0  0  0  0
 12 16  1  0  0  0  0
  3 17  1  0  0  0  0
  3 18  1  0  0  0  0
  4 19  1  0  0  0  0
  4 20  1  0  0  0  0
  5 21  1  0  0  0  0
  6 22  1  0  0  0  0
  7 23  1  0  0  0  0
  7 24  1  0  0  0  0
  9 25  1  0  0  0  0
 10 26  1  0  0  0  0
 10 27  1  0  0  0  0
 11 28  1  0  0  0  0
 11 29  1  0  0  0  0
 13 30  1  0  0  0  0
 13 31  1  0  0  0  0
 15 32  1  0  0  0  0
 16 33  1  0  0  0  0
 16 34  1  0  0  0  0
 16 35  1  0  0  0  0
M  END
