 xtb: 6.7.1 (edcfbbe)
          08092618423D

 35 36  0     0  0            999 V2000
   -0.0743   -0.7876   -0.2805 c   0  0  0  0  0  0  0  0  0  0  0  0
    0.5252    0.5027   -0.9032 c   0  0  0  0  0  0  0  0  0  0  0  0
   -0.4566    1.6881   -0.7712 c   0  0  0  0  0  0  0  0  0  0  0  0
   -1.2381    1.7340    0.5402 c   0  0  0  0  0  0  0  0  0  0  0  0
   -1.8052    0.3517    0.8804 c   0  0  0  0  0  0  0  0  0  0  0  0
   -0.6343   -0.5971    1.1469 c   0  0  0  0  0  0  0  0  0  0  0  0
   -1.3836   -1.1107   -1.0282 c   0  0  0  0  0  0  0  0  0  0  0  0
   -2.4343   -0.2771   -0.3350 c   0  0  0  0  0  0  0  0  0  0  0  0
    0.2462   -0.1219    2.1331 o   0  0  0  0  0  0  0  0  0  0  0  0
    0.9177   -1.9575   -0.3279 c   0  0  0  0  0  0  0  0  0  0  0  0
   -3.6857   -0.1247   -0.7280 c   0  0  0  0  0  0  0  0  0  0  0  0
    1.9358    0.8708   -0.4776 c   0  0  0  0  0  0  0  0  0  0  0  0
    2.2535    1.4760    0.6587 c   0  0  0  0  0  0  0  0  0  0  0  0
    0.6008    0.2843   -1.9761 h   0  0  0  0  0  0  0  0  0  0  0  0
    1.9613   -1.8479    0.6205 o   0  0  0  0  0  0  0  0  0  0  0  0
    2.9894    0.5997   -1.5196 c   0  0  0  0  0  0  0  0  0  0  0  0
    0.0976    2.6202   -0.8972 h   0  0  0  0  0  0  0  0  0  0  0  0
   -1.1799    1.6227   -1.5868 h   0  0  0  0  0  0  0  0  0  0  0  0
   -0.6044    2.0522    1.3675 h   0  0  0  0  0  0  0  0  0  0  0  0
   -2.0541    2.4522    0.4412 h   0  0  0  0  0  0  0  0  0  0  0  0
   -2.4858    0.4225    1.7302 h   0  0  0  0  0  0  0  0  0  0  0  0
   -1.0331   -1.5739    1.4746 h   0  0  0  0  0  0  0  0  0  0  0  0
   -1.3252   -0.8962   -2.0950 h   0  0  0  0  0  0  0  0  0  0  0  0
   -1.6280   -2.1706   -0.9188 h   0  0  0  0  0  0  0  0  0  0  0  0
    1.0037   -0.7263    2.1420 h   0  0  0  0  0  0  0  0  0  0  0  0
    1.3292   -2.0662   -1.3406 h   0  0  0  0  0  0  0  0  0  0  0  0
    0.4019   -2.8875   -0.0707 h   0  0  0  0  0  0  0  0  0  0  0  0
   -4.0616   -0.5959   -1.6210 h   0  0  0  0  0  0  0  0  0  0  0  0
   -4.3838    0.4774   -0.1719 h   0  0  0  0  0  0  0  0  0  0  0  0
    3.2742    1.7465    0.8790 h   0  0  0  0  0  0  0  0  0  0  0  0
    1.5303    1.7084    1.4173 h   0  0  0  0  0  0  0  0  0  0  0  0
    2.4508   -1.0310    0.4308 h   0  0  0  0  0  0  0  0  0  0  0  0
    3.9843    0.8148   -1.1363 h   0  0  0  0  0  0  0  0  0  0  0  0
    2.9615   -0.4343   -1.8611 h   0  0  0  0  0  0  0  0  0  0  0  0
    2.8132    1.2342   -2.3891 h   0  0  0  0  0  0  0  0  0  0  0  0
  1  2  1  0  0  0  0
  2  3  1  0  0  0  0
  3  4  1  0  0  0  0
  4  5  1  0  0  0  0
  1  6  1  0  0  0  0
  5  6  1  0  0  0  0
  1  7  1  0  0  0  0
  5  8  1  0  0  0  0
  7  8  1  0  0  0  0
  6  9  1  0  0  0  0
  1 10  1  0  0  0  0
  8 11  2  0  0  0  0
  2 12  1  0  0  0  0
 12 13  2  0  0  0  0
  2 14  1  0  0  0  0
 10 15  1  0  0  0  0
 12 16  1  0  0  0  0
  3 17  1  0  0  0  0
  3 18  1  0  0  0  0
  4 19  1  0  0  0  0
  4 20  1  0  0  0  0
  5 21  1  0  0  0  0
  6 22  1  0  0  0  0
  7 23  1  0  0  0  0
  7 24  1  0  0  0  0
  9 25  1  0  0  0  0
 10 26  1  0  0  0  0
 10 27  1  0  0  0  0
 11 28  1  0  0  0  0
 11 29  1  0  0  0  0
 13 30  1  0  0  0  0
 13 31  1  0  0  0  0
 15 32  1  0  0  0  0
 16 33  1  0  0  0  0
 16 34  1  0  0  0  0
 16 35  1  0  0  0  0
M  END
