 xtb: 6.7.1 (edcfbbe)
          08092617053D

 35 36  0     0  0            999 V2000
    0.1341   -0.5669    0.4252 c   0  0  0  0  0  0  0  0  0  0  0  0
   -0.9400    0.5094    0.7317 c   0  0  0  0  0  0  0  0  0  0  0  0
   -0.3475    1.9258    0.5584 c   0  0  0  0  0  0  0  0  0  0  0  0
    0.5810    2.1114   -0.6441 c   0  0  0  0  0  0  0  0  0  0  0  0
    1.5245    0.9146   -0.8018 c   0  0  0  0  0  0  0  0  0  0  0  0
    0.6760   -0.3440   -1.0019 c   0  0  0  0  0  0  0  0  0  0  0  0
    1.3775   -0.3090    1.3022 c   0  0  0  0  0  0  0  0  0  0  0  0
    2.2273    0.6461    0.5038 c   0  0  0  0  0  0  0  0  0  0  0  0
    1.4170   -1.4429   -1.5012 o   0  0  0  0  0  0  0  0  0  0  0  0
   -0.3878   -1.9978    0.6313 c   0  0  0  0  0  0  0  0  0  0  0  0
    3.3900    1.1507    0.8755 c   0  0  0  0  0  0  0  0  0  0  0  0
   -2.2538    0.3203   -0.0024 c   0  0  0  0  0  0  0  0  0  0  0  0
   -2.5023    0.7468   -1.2318 c   0  0  0  0  0  0  0  0  0  0  0  0
   -1.1760    0.3981    1.7969 h   0  0  0  0  0  0  0  0  0  0  0  0
   -1.2997   -2.4277   -0.3543 o   0  0  0  0  0  0  0  0  0  0  0  0
   -3.3390   -0.3420    0.7969 c   0  0  0  0  0  0  0  0  0  0  0  0
   -1.1690    2.6414    0.4937 h   0  0  0  0  0  0  0  0  0  0  0  0
    0.2222    2.1662    1.4582 h   0  0  0  0  0  0  0  0  0  0  0  0
    0.0125    2.2356   -1.5658 h   0  0  0  0  0  0  0  0  0  0  0  0
    1.1695    3.0197   -0.4971 h   0  0  0  0  0  0  0  0  0  0  0  0
    2.2165    1.0818   -1.6305 h   0  0  0  0  0  0  0  0  0  0  0  0
   -0.1259   -0.2002   -1.7273 h   0  0  0  0  0  0  0  0  0  0  0  0
    1.9229   -1.2396    1.4816 h   0  0  0  0  0  0  0  0  0  0  0  0
    1.1145    0.0972    2.2788 h   0  0  0  0  0  0  0  0  0  0  0  0
    2.2204   -1.5284   -0.9716 h   0  0  0  0  0  0  0  0  0  0  0  0
   -0.9142   -2.0711    1.5862 h   0  0  0  0  0  0  0  0  0  0  0  0
    0.4656   -2.6905    0.6599 h   0  0  0  0  0  0  0  0  0  0  0  0
    3.8279    0.9229    1.8331 h   0  0  0  0  0  0  0  0  0  0  0  0
    3.9469    1.8181    0.2396 h   0  0  0  0  0  0  0  0  0  0  0  0
   -3.4701    0.5990   -1.6825 h   0  0  0  0  0  0  0  0  0  0  0  0
   -1.7826    1.2541   -1.8473 h   0  0  0  0  0  0  0  0  0  0  0  0
   -0.8363   -2.4147   -1.2018 h   0  0  0  0  0  0  0  0  0  0  0  0
   -4.2847   -0.3123    0.2621 h   0  0  0  0  0  0  0  0  0  0  0  0
   -3.0871   -1.3841    0.9808 h   0  0  0  0  0  0  0  0  0  0  0  0
   -3.4637    0.1560    1.7580 h   0  0  0  0  0  0  0  0  0  0  0  0
  1  2  1  0  0  0  0
  2  3  1  0  0  0  0
  3  4  1  0  0  0  0
  4  5  1  0  0  0  0
  1  6  1  0  0  0  0
  5  6  1  0  0  0  0
  1  7  1  0  0  0  0
  5  8  1  0  0  0  0
  7  8  1  0  0  0  0
  6  9  1  0  0  0  0
  1 10  1  0  0  0  0
  8 11  2  0  0  0  0
  2 12  1  0  0  0  0
 12 13  2  0  0  0  0
  2 14  1  0  0  0  0
 10 15  1  0  0  0  0
 12 16  1  0  0  0  0
  3 17  1  0  0  0  0
  3 18  1  0  0  0  0
  4 19  1  0  0  0  0
  4 20  1  0  0  0  0
  5 21  1  0  0  0  0
  6 22  1  0  0  0  0
  7 23  1  0  0  0  0
  7 24  1  0  0  0  0
  9 25  1  0  0  0  0
 10 26  1  0  0  0  0
 10 27  1  0  0  0  0
 11 28  1  0  0  0  0
 11 29  1  0  0  0  0
 13 30  1  0  0  0  0
 13 31  1  0  0  0  0
 15 32  1  0  0  0  0
 16 33  1  0  0  0  0
 16 34  1  0  0  0  0
 16 35  1  0  0  0  0
M  END
