 xtb: 6.7.1 (edcfbbe)
          08092618203D

 35 36  0     0  0            999 V2000
    0.0130   -0.7612   -0.0488 c   0  0  0  0  0  0  0  0  0  0  0  0
    0.6310    0.4763   -0.7667 c   0  0  0  0  0  0  0  0  0  0  0  0
   -0.4284    1.5941   -0.8954 c   0  0  0  0  0  0  0  0  0  0  0  0
   -1.3101    1.8040    0.3370 c   0  0  0  0  0  0  0  0  0  0  0  0
   -1.8071    0.4609    0.8793 c   0  0  0  0  0  0  0  0  0  0  0  0
   -0.6035   -0.3923    1.3169 c   0  0  0  0  0  0  0  0  0  0  0  0
   -1.2496   -1.1997   -0.8178 c   0  0  0  0  0  0  0  0  0  0  0  0
   -2.3681   -0.3654   -0.2472 c   0  0  0  0  0  0  0  0  0  0  0  0
    0.2598    0.1661    2.2691 o   0  0  0  0  0  0  0  0  0  0  0  0
    0.9967   -1.9259    0.1163 c   0  0  0  0  0  0  0  0  0  0  0  0
   -3.6205   -0.3565   -0.6658 c   0  0  0  0  0  0  0  0  0  0  0  0
    1.9608    0.9917   -0.2374 c   0  0  0  0  0  0  0  0  0  0  0  0
    2.0912    2.0330    0.5760 c   0  0  0  0  0  0  0  0  0  0  0  0
    0.8395    0.1424   -1.7922 h   0  0  0  0  0  0  0  0  0  0  0  0
    1.4601   -2.4699   -1.0998 o   0  0  0  0  0  0  0  0  0  0  0  0
    3.1992    0.3474   -0.8009 c   0  0  0  0  0  0  0  0  0  0  0  0
    0.0737    2.5282   -1.1547 h   0  0  0  0  0  0  0  0  0  0  0  0
   -1.0874    1.3415   -1.7280 h   0  0  0  0  0  0  0  0  0  0  0  0
   -0.7845    2.3310    1.1346 h   0  0  0  0  0  0  0  0  0  0  0  0
   -2.1677    2.4178    0.0531 h   0  0  0  0  0  0  0  0  0  0  0  0
   -2.5201    0.6214    1.6900 h   0  0  0  0  0  0  0  0  0  0  0  0
   -0.9777   -1.3078    1.7934 h   0  0  0  0  0  0  0  0  0  0  0  0
   -1.1503   -1.0784   -1.8964 h   0  0  0  0  0  0  0  0  0  0  0  0
   -1.4442   -2.2586   -0.6315 h   0  0  0  0  0  0  0  0  0  0  0  0
    0.7657    0.8733    1.8410 h   0  0  0  0  0  0  0  0  0  0  0  0
    0.4863   -2.7517    0.6199 h   0  0  0  0  0  0  0  0  0  0  0  0
    1.8319   -1.6173    0.7590 h   0  0  0  0  0  0  0  0  0  0  0  0
   -3.9466   -0.9662   -1.4919 h   0  0  0  0  0  0  0  0  0  0  0  0
   -4.3701    0.2590   -0.1978 h   0  0  0  0  0  0  0  0  0  0  0  0
    3.0664    2.3821    0.8741 h   0  0  0  0  0  0  0  0  0  0  0  0
    1.2681    2.6065    0.9638 h   0  0  0  0  0  0  0  0  0  0  0  0
    1.9171   -1.7727   -1.5886 h   0  0  0  0  0  0  0  0  0  0  0  0
    3.3459   -0.6622   -0.4227 h   0  0  0  0  0  0  0  0  0  0  0  0
    3.1420    0.3020   -1.8886 h   0  0  0  0  0  0  0  0  0  0  0  0
    4.0797    0.9265   -0.5324 h   0  0  0  0  0  0  0  0  0  0  0  0
  1  2  1  0  0  0  0
  2  3  1  0  0  0  0
  3  4  1  0  0  0  0
  4  5  1  0  0  0  0
  1  6  1  0  0  0  0
  5  6  1  0  0  0  0
  1  7  1  0  0  0  0
  5  8  1  0  0  0  0
  7  8  1  0  0  0  0
  6  9  1  0  0  0  0
  1 10  1  0  0  0  0
  8 11  2  0  0  0  0
  2 12  1  0  0  0  0
 12 13  2  0  0  0  0
  2 14  1  0  0  0  0
 10 15  1  0  0  0  0
 12 16  1  0  0  0  0
  3 17  1  0  0  0  0
  3 18  1  0  0  0  0
  4 19  1  0  0  0  0
  4 20  1  0  0  0  0
  5 21  1  0  0  0  0
  6 22  1  0  0  0  0
  7 23  1  0  0  0  0
  7 24  1  0  0  0  0
  9 25  1  0  0  0  0
 10 26  1  0  0  0  0
 10 27  1  0  0  0  0
 11 28  1  0  0  0  0
 11 29  1  0  0  0  0
 13 30  1  0  0  0  0
 13 31  1  0  0  0  0
 15 32  1  0  0  0  0
 16 33  1  0  0  0  0
 16 34  1  0  0  0  0
 16 35  1  0  0  0  0
M  END
