 xtb: 6.7.1 (edcfbbe)
          08092615283D

 35 36  0     0  0            999 V2000
    0.0762   -0.6199    0.1079 c   0  0  0  0  0  0  0  0  0  0  0  0
   -0.9537    0.4054    0.6512 c   0  0  0  0  0  0  0  0  0  0  0  0
   -0.3299    1.8151    0.7389 c   0  0  0  0  0  0  0  0  0  0  0  0
    0.5747    2.2042   -0.4307 c   0  0  0  0  0  0  0  0  0  0  0  0
    1.4905    1.0411   -0.8206 c   0  0  0  0  0  0  0  0  0  0  0  0
    0.6234   -0.1461   -1.2554 c   0  0  0  0  0  0  0  0  0  0  0  0
    1.3393   -0.5868    0.9917 c   0  0  0  0  0  0  0  0  0  0  0  0
    2.1920    0.5073    0.4031 c   0  0  0  0  0  0  0  0  0  0  0  0
    1.3596   -1.1280   -1.9414 o   0  0  0  0  0  0  0  0  0  0  0  0
   -0.5131   -2.0327    0.0155 c   0  0  0  0  0  0  0  0  0  0  0  0
    3.3532    0.9254    0.8721 c   0  0  0  0  0  0  0  0  0  0  0  0
   -2.2910    0.3941   -0.0641 c   0  0  0  0  0  0  0  0  0  0  0  0
   -2.5398    0.9929   -1.2185 c   0  0  0  0  0  0  0  0  0  0  0  0
   -1.1642    0.1080    1.6878 h   0  0  0  0  0  0  0  0  0  0  0  0
   -0.7572   -2.6259    1.2677 o   0  0  0  0  0  0  0  0  0  0  0  0
   -3.4025   -0.3008    0.6745 c   0  0  0  0  0  0  0  0  0  0  0  0
   -1.1331    2.5480    0.8376 h   0  0  0  0  0  0  0  0  0  0  0  0
    0.2688    1.8637    1.6510 h   0  0  0  0  0  0  0  0  0  0  0  0
   -0.0117    2.5021   -1.3001 h   0  0  0  0  0  0  0  0  0  0  0  0
    1.1813    3.0627   -0.1341 h   0  0  0  0  0  0  0  0  0  0  0  0
    2.1857    1.3511   -1.6040 h   0  0  0  0  0  0  0  0  0  0  0  0
   -0.1745    0.1289   -1.9451 h   0  0  0  0  0  0  0  0  0  0  0  0
    1.8547   -1.5501    0.9462 h   0  0  0  0  0  0  0  0  0  0  0  0
    1.1097   -0.4051    2.0421 h   0  0  0  0  0  0  0  0  0  0  0  0
    2.1373   -1.3470   -1.4145 h   0  0  0  0  0  0  0  0  0  0  0  0
    0.2027   -2.6911   -0.4823 h   0  0  0  0  0  0  0  0  0  0  0  0
   -1.4236   -2.0073   -0.5992 h   0  0  0  0  0  0  0  0  0  0  0  0
    3.7908    0.5050    1.7621 h   0  0  0  0  0  0  0  0  0  0  0  0
    3.9112    1.7081    0.3868 h   0  0  0  0  0  0  0  0  0  0  0  0
   -3.5235    0.9623   -1.6573 h   0  0  0  0  0  0  0  0  0  0  0  0
   -1.8034    1.5384   -1.7776 h   0  0  0  0  0  0  0  0  0  0  0  0
   -1.3699   -2.0672    1.7591 h   0  0  0  0  0  0  0  0  0  0  0  0
   -3.2006   -1.3645    0.7942 h   0  0  0  0  0  0  0  0  0  0  0  0
   -3.5209    0.1313    1.6687 h   0  0  0  0  0  0  0  0  0  0  0  0
   -4.3437   -0.1962    0.1411 h   0  0  0  0  0  0  0  0  0  0  0  0
  1  2  1  0  0  0  0
  2  3  1  0  0  0  0
  3  4  1  0  0  0  0
  4  5  1  0  0  0  0
  1  6  1  0  0  0  0
  5  6  1  0  0  0  0
  1  7  1  0  0  0  0
  5  8  1  0  0  0  0
  7  8  1  0  0  0  0
  6  9  1  0  0  0  0
  1 10  1  0  0  0  0
  8 11  2  0  0  0  0
  2 12  1  0  0  0  0
 12 13  2  0  0  0  0
  2 14  1  0  0  0  0
 10 15  1  0  0  0  0
 12 16  1  0  0  0  0
  3 17  1  0  0  0  0
  3 18  1  0  0  0  0
  4 19  1  0  0  0  0
  4 20  1  0  0  0  0
  5 21  1  0  0  0  0
  6 22  1  0  0  0  0
  7 23  1  0  0  0  0
  7 24  1  0  0  0  0
  9 25  1  0  0  0  0
 10 26  1  0  0  0  0
 10 27  1  0  0  0  0
 11 28  1  0  0  0  0
 11 29  1  0  0  0  0
 13 30  1  0  0  0  0
 13 31  1  0  0  0  0
 15 32  1  0  0  0  0
 16 33  1  0  0  0  0
 16 34  1  0  0  0  0
 16 35  1  0  0  0  0
M  END
