 xtb: 6.7.1 (edcfbbe)
          08092615283D

 35 36  0     0  0            999 V2000
    0.0944   -0.6241    0.1063 c   0  0  0  0  0  0  0  0  0  0  0  0
   -0.9359    0.3986    0.6539 c   0  0  0  0  0  0  0  0  0  0  0  0
   -0.3212    1.8111    0.7370 c   0  0  0  0  0  0  0  0  0  0  0  0
    0.5773    2.2038   -0.4373 c   0  0  0  0  0  0  0  0  0  0  0  0
    1.4978    1.0431   -0.8243 c   0  0  0  0  0  0  0  0  0  0  0  0
    0.6299   -0.1403   -1.2565 c   0  0  0  0  0  0  0  0  0  0  0  0
    1.3673   -0.5961    0.9763 c   0  0  0  0  0  0  0  0  0  0  0  0
    2.2016    0.5172    0.3989 c   0  0  0  0  0  0  0  0  0  0  0  0
    1.4547   -1.0904   -1.9133 o   0  0  0  0  0  0  0  0  0  0  0  0
   -0.5029   -2.0350    0.0254 c   0  0  0  0  0  0  0  0  0  0  0  0
    3.3490    0.9576    0.8809 c   0  0  0  0  0  0  0  0  0  0  0  0
   -2.2753    0.3631   -0.0569 c   0  0  0  0  0  0  0  0  0  0  0  0
   -2.5493    0.9659   -1.2044 c   0  0  0  0  0  0  0  0  0  0  0  0
   -1.1461    0.0865    1.6836 h   0  0  0  0  0  0  0  0  0  0  0  0
   -0.9810   -2.5171    1.2645 o   0  0  0  0  0  0  0  0  0  0  0  0
   -3.3521   -0.3701    0.6912 c   0  0  0  0  0  0  0  0  0  0  0  0
   -1.1290    2.5385    0.8367 h   0  0  0  0  0  0  0  0  0  0  0  0
    0.2803    1.8648    1.6466 h   0  0  0  0  0  0  0  0  0  0  0  0
   -0.0133    2.4960   -1.3059 h   0  0  0  0  0  0  0  0  0  0  0  0
    1.1825    3.0644   -0.1461 h   0  0  0  0  0  0  0  0  0  0  0  0
    2.1932    1.3397   -1.6110 h   0  0  0  0  0  0  0  0  0  0  0  0
   -0.1801    0.1603   -1.9271 h   0  0  0  0  0  0  0  0  0  0  0  0
    1.9118   -1.5386    0.8704 h   0  0  0  0  0  0  0  0  0  0  0  0
    1.1556   -0.4389    2.0346 h   0  0  0  0  0  0  0  0  0  0  0  0
    0.8952   -1.7638   -2.3162 h   0  0  0  0  0  0  0  0  0  0  0  0
    0.2571   -2.7261   -0.3660 h   0  0  0  0  0  0  0  0  0  0  0  0
   -1.3641   -2.0434   -0.6478 h   0  0  0  0  0  0  0  0  0  0  0  0
    3.7887    0.5419    1.7724 h   0  0  0  0  0  0  0  0  0  0  0  0
    3.8975    1.7502    0.4009 h   0  0  0  0  0  0  0  0  0  0  0  0
   -3.5359    0.9111   -1.6363 h   0  0  0  0  0  0  0  0  0  0  0  0
   -1.8361    1.5469   -1.7595 h   0  0  0  0  0  0  0  0  0  0  0  0
   -0.2453   -2.5150    1.8904 h   0  0  0  0  0  0  0  0  0  0  0  0
   -3.0007   -1.3446    1.0227 h   0  0  0  0  0  0  0  0  0  0  0  0
   -3.6270    0.1994    1.5800 h   0  0  0  0  0  0  0  0  0  0  0  0
   -4.2407   -0.4993    0.0783 h   0  0  0  0  0  0  0  0  0  0  0  0
  1  2  1  0  0  0  0
  2  3  1  0  0  0  0
  3  4  1  0  0  0  0
  4  5  1  0  0  0  0
  1  6  1  0  0  0  0
  5  6  1  0  0  0  0
  1  7  1  0  0  0  0
  5  8  1  0  0  0  0
  7  8  1  0  0  0  0
  6  9  1  0  0  0  0
  1 10  1  0  0  0  0
  8 11  2  0  0  0  0
  2 12  1  0  0  0  0
 12 13  2  0  0  0  0
  2 14  1  0  0  0  0
 10 15  1  0  0  0  0
 12 16  1  0  0  0  0
  3 17  1  0  0  0  0
  3 18  1  0  0  0  0
  4 19  1  0  0  0  0
  4 20  1  0  0  0  0
  5 21  1  0  0  0  0
  6 22  1  0  0  0  0
  7 23  1  0  0  0  0
  7 24  1  0  0  0  0
  9 25  1  0  0  0  0
 10 26  1  0  0  0  0
 10 27  1  0  0  0  0
 11 28  1  0  0  0  0
 11 29  1  0  0  0  0
 13 30  1  0  0  0  0
 13 31  1  0  0  0  0
 15 32  1  0  0  0  0
 16 33  1  0  0  0  0
 16 34  1  0  0  0  0
 16 35  1  0  0  0  0
M  END
