 xtb: 6.7.1 (edcfbbe)
          08092615283D

 35 36  0     0  0            999 V2000
    0.1131   -0.6475    0.0909 c   0  0  0  0  0  0  0  0  0  0  0  0
   -0.8933    0.3709    0.6849 c   0  0  0  0  0  0  0  0  0  0  0  0
   -0.3247    1.8082    0.6960 c   0  0  0  0  0  0  0  0  0  0  0  0
    0.5581    2.1809   -0.4956 c   0  0  0  0  0  0  0  0  0  0  0  0
    1.5108    1.0307   -0.8285 c   0  0  0  0  0  0  0  0  0  0  0  0
    0.6673   -0.1663   -1.2672 c   0  0  0  0  0  0  0  0  0  0  0  0
    1.3911   -0.6336    0.9500 c   0  0  0  0  0  0  0  0  0  0  0  0
    2.1860    0.5301    0.4228 c   0  0  0  0  0  0  0  0  0  0  0  0
    1.5133   -1.1054   -1.8953 o   0  0  0  0  0  0  0  0  0  0  0  0
   -0.5156   -2.0481   -0.0029 c   0  0  0  0  0  0  0  0  0  0  0  0
    3.2811    1.0343    0.9597 c   0  0  0  0  0  0  0  0  0  0  0  0
   -2.2970    0.3063    0.1187 c   0  0  0  0  0  0  0  0  0  0  0  0
   -3.2997   -0.0862    0.8950 c   0  0  0  0  0  0  0  0  0  0  0  0
   -0.9988    0.0888    1.7403 h   0  0  0  0  0  0  0  0  0  0  0  0
   -1.0323   -2.5320    1.2086 o   0  0  0  0  0  0  0  0  0  0  0  0
   -2.5725    0.7305   -1.2928 c   0  0  0  0  0  0  0  0  0  0  0  0
   -1.1544    2.5137    0.7800 h   0  0  0  0  0  0  0  0  0  0  0  0
    0.2825    1.9155    1.5966 h   0  0  0  0  0  0  0  0  0  0  0  0
   -0.0392    2.4154   -1.3789 h   0  0  0  0  0  0  0  0  0  0  0  0
    1.1323    3.0733   -0.2397 h   0  0  0  0  0  0  0  0  0  0  0  0
    2.2242    1.3222   -1.6001 h   0  0  0  0  0  0  0  0  0  0  0  0
   -0.1225    0.1317   -1.9652 h   0  0  0  0  0  0  0  0  0  0  0  0
    1.9510   -1.5570    0.7867 h   0  0  0  0  0  0  0  0  0  0  0  0
    1.1841   -0.5566    2.0168 h   0  0  0  0  0  0  0  0  0  0  0  0
    0.9928   -1.8612   -2.1837 h   0  0  0  0  0  0  0  0  0  0  0  0
    0.2527   -2.7725   -0.2891 h   0  0  0  0  0  0  0  0  0  0  0  0
   -1.2997   -2.0453   -0.7770 h   0  0  0  0  0  0  0  0  0  0  0  0
    3.7034    0.6353    1.8665 h   0  0  0  0  0  0  0  0  0  0  0  0
    3.8035    1.8616    0.5105 h   0  0  0  0  0  0  0  0  0  0  0  0
   -4.3148   -0.1230    0.5361 h   0  0  0  0  0  0  0  0  0  0  0  0
   -3.1633   -0.3678    1.9272 h   0  0  0  0  0  0  0  0  0  0  0  0
   -1.7993   -1.9981    1.4461 h   0  0  0  0  0  0  0  0  0  0  0  0
   -2.0738    1.6683   -1.5225 h   0  0  0  0  0  0  0  0  0  0  0  0
   -2.2298   -0.0213   -2.0030 h   0  0  0  0  0  0  0  0  0  0  0  0
   -3.6421    0.8627   -1.4405 h   0  0  0  0  0  0  0  0  0  0  0  0
  1  2  1  0  0  0  0
  2  3  1  0  0  0  0
  3  4  1  0  0  0  0
  4  5  1  0  0  0  0
  1  6  1  0  0  0  0
  5  6  1  0  0  0  0
  1  7  1  0  0  0  0
  5  8  1  0  0  0  0
  7  8  1  0  0  0  0
  6  9  1  0  0  0  0
  1 10  1  0  0  0  0
  8 11  2  0  0  0  0
  2 12  1  0  0  0  0
 12 13  2  0  0  0  0
  2 14  1  0  0  0  0
 10 15  1  0  0  0  0
 12 16  1  0  0  0  0
  3 17  1  0  0  0  0
  3 18  1  0  0  0  0
  4 19  1  0  0  0  0
  4 20  1  0  0  0  0
  5 21  1  0  0  0  0
  6 22  1  0  0  0  0
  7 23  1  0  0  0  0
  7 24  1  0  0  0  0
  9 25  1  0  0  0  0
 10 26  1  0  0  0  0
 10 27  1  0  0  0  0
 11 28  1  0  0  0  0
 11 29  1  0  0  0  0
 13 30  1  0  0  0  0
 13 31  1  0  0  0  0
 15 32  1  0  0  0  0
 16 33  1  0  0  0  0
 16 34  1  0  0  0  0
 16 35  1  0  0  0  0
M  END
