 xtb: 6.7.1 (edcfbbe)
          08092620033D

 50 55  0     0  0            999 V2000
   -0.0694    0.5218    2.4913 c   0  0  0  0  0  0  0  0  0  0  0  0
    1.4122    0.8660    2.3341 c   0  0  0  0  0  0  0  0  0  0  0  0
   -2.0633   -3.4532   -0.0969 c   0  0  0  0  0  0  0  0  0  0  0  0
   -3.1695   -3.0040    0.6047 c   0  0  0  0  0  0  0  0  0  0  0  0
   -3.2122   -1.7007    1.0548 c   0  0  0  0  0  0  0  0  0  0  0  0
   -2.1730   -0.8144    0.7768 c   0  0  0  0  0  0  0  0  0  0  0  0
   -1.0930   -1.2444   -0.0038 c   0  0  0  0  0  0  0  0  0  0  0  0
   -1.0378   -2.5755   -0.3964 c   0  0  0  0  0  0  0  0  0  0  0  0
   -2.2316    0.4827    1.2765 n   0  0  0  0  0  0  0  0  0  0  0  0
   -0.9690    1.1670    1.4186 c   0  0  0  0  0  0  0  0  0  0  0  0
   -0.3211    1.1544    0.0185 c   0  0  0  0  0  0  0  0  0  0  0  0
    0.0158   -0.2918   -0.3993 c   0  0  0  0  0  0  0  0  0  0  0  0
    1.0356    1.8380    0.0992 c   0  0  0  0  0  0  0  0  0  0  0  0
    1.8490    0.7769    0.8605 c   0  0  0  0  0  0  0  0  0  0  0  0
    1.3751   -0.5821    0.2998 c   0  0  0  0  0  0  0  0  0  0  0  0
    3.3145    1.0303    0.7223 c   0  0  0  0  0  0  0  0  0  0  0  0
    4.1344    0.1878    0.1195 c   0  0  0  0  0  0  0  0  0  0  0  0
    3.6854   -1.1253   -0.4200 c   0  0  0  0  0  0  0  0  0  0  0  0
    2.2379   -1.2259   -0.7438 n   0  0  0  0  0  0  0  0  0  0  0  0
    1.8866   -0.4947   -1.9845 c   0  0  0  0  0  0  0  0  0  0  0  0
    0.3685   -0.3869   -1.9067 c   0  0  0  0  0  0  0  0  0  0  0  0
    1.9354   -2.5119   -0.8667 o   0  0  0  0  0  0  0  0  0  0  0  0
    1.2967   -1.3387    1.0813 h   0  0  0  0  0  0  0  0  0  0  0  0
   -1.3182    1.8581   -0.8874 c   0  0  0  0  0  0  0  0  0  0  0  0
   -2.0078    1.3568   -1.7313 o   0  0  0  0  0  0  0  0  0  0  0  0
   -1.3531    3.1691   -0.6002 o   0  0  0  0  0  0  0  0  0  0  0  0
   -2.2952    3.9370   -1.3369 c   0  0  0  0  0  0  0  0  0  0  0  0
   -0.4138    0.8387    3.4786 h   0  0  0  0  0  0  0  0  0  0  0  0
   -0.2047   -0.5598    2.4342 h   0  0  0  0  0  0  0  0  0  0  0  0
    1.6024    1.8791    2.6955 h   0  0  0  0  0  0  0  0  0  0  0  0
    2.0083    0.1803    2.9404 h   0  0  0  0  0  0  0  0  0  0  0  0
   -1.9981   -4.4836   -0.4108 h   0  0  0  0  0  0  0  0  0  0  0  0
   -3.9865   -3.6748    0.8280 h   0  0  0  0  0  0  0  0  0  0  0  0
   -4.0524   -1.3510    1.6395 h   0  0  0  0  0  0  0  0  0  0  0  0
   -0.1457   -2.9299   -0.8950 h   0  0  0  0  0  0  0  0  0  0  0  0
   -2.8732    0.5916    2.0496 h   0  0  0  0  0  0  0  0  0  0  0  0
   -1.1712    2.2105    1.6886 h   0  0  0  0  0  0  0  0  0  0  0  0
    0.9913    2.7841    0.6367 h   0  0  0  0  0  0  0  0  0  0  0  0
    1.4404    2.0311   -0.8939 h   0  0  0  0  0  0  0  0  0  0  0  0
    3.6679    1.9711    1.1196 h   0  0  0  0  0  0  0  0  0  0  0  0
    5.1895    0.3999    0.0238 h   0  0  0  0  0  0  0  0  0  0  0  0
    4.2272   -1.3967   -1.3288 h   0  0  0  0  0  0  0  0  0  0  0  0
    3.8695   -1.9216    0.3102 h   0  0  0  0  0  0  0  0  0  0  0  0
    2.3886    0.4747   -1.9959 h   0  0  0  0  0  0  0  0  0  0  0  0
    2.2160   -1.0955   -2.8318 h   0  0  0  0  0  0  0  0  0  0  0  0
   -0.0816   -1.2859   -2.3218 h   0  0  0  0  0  0  0  0  0  0  0  0
   -0.0004    0.4646   -2.4709 h   0  0  0  0  0  0  0  0  0  0  0  0
   -3.3003    3.5354   -1.1964 h   0  0  0  0  0  0  0  0  0  0  0  0
   -2.2280    4.9516   -0.9529 h   0  0  0  0  0  0  0  0  0  0  0  0
   -2.0545    3.9130   -2.4015 h   0  0  0  0  0  0  0  0  0  0  0  0
  1  2  1  0  0  0  0
  3  4  4  0  0  0  0
  4  5  4  0  0  0  0
  5  6  4  0  0  0  0
  6  7  4  0  0  0  0
  3  8  4  0  0  0  0
  7  8  4  0  0  0  0
  6  9  1  0  0  0  0
  1 10  1  0  0  0  0
  9 10  1  0  0  0  0
 10 11  1  0  0  0  0
  7 12  1  0  0  0  0
 11 12  1  0  0  0  0
 11 13  1  0  0  0  0
  2 14  1  0  0  0  0
 13 14  1  0  0  0  0
 12 15  1  0  0  0  0
 14 15  1  0  0  0  0
 14 16  1  0  0  0  0
 16 17  2  0  0  0  0
 17 18  1  0  0  0  0
 15 19  1  0  0  0  0
 18 19  1  0  0  0  0
 19 20  1  0  0  0  0
 12 21  1  0  0  0  0
 20 21  1  0  0  0  0
 19 22  1  0  0  0  0
 15 23  1  0  0  0  0
 11 24  1  0  0  0  0
 24 25  2  0  0  0  0
 24 26  1  0  0  0  0
 26 27  1  0  0  0  0
  1 28  1  0  0  0  0
  1 29  1  0  0  0  0
  2 30  1  0  0  0  0
  2 31  1  0  0  0  0
  3 32  1  0  0  0  0
  4 33  1  0  0  0  0
  5 34  1  0  0  0  0
  8 35  1  0  0  0  0
  9 36  1  0  0  0  0
 10 37  1  0  0  0  0
 13 38  1  0  0  0  0
 13 39  1  0  0  0  0
 16 40  1  0  0  0  0
 17 41  1  0  0  0  0
 18 42  1  0  0  0  0
 18 43  1  0  0  0  0
 20 44  1  0  0  0  0
 20 45  1  0  0  0  0
 21 46  1  0  0  0  0
 21 47  1  0  0  0  0
 27 48  1  0  0  0  0
 27 49  1  0  0  0  0
 27 50  1  0  0  0  0
M  END
