 xtb: 6.7.1 (edcfbbe)
          08092615283D

 35 36  0     0  0            999 V2000
    0.0879   -0.6184    0.1029 c   0  0  0  0  0  0  0  0  0  0  0  0
   -0.9433    0.4011    0.6514 c   0  0  0  0  0  0  0  0  0  0  0  0
   -0.3294    1.8131    0.7418 c   0  0  0  0  0  0  0  0  0  0  0  0
    0.5739    2.2075   -0.4272 c   0  0  0  0  0  0  0  0  0  0  0  0
    1.4978    1.0492   -0.8147 c   0  0  0  0  0  0  0  0  0  0  0  0
    0.6364   -0.1377   -1.2554 c   0  0  0  0  0  0  0  0  0  0  0  0
    1.3491   -0.5905    0.9884 c   0  0  0  0  0  0  0  0  0  0  0  0
    2.1974    0.5125    0.4096 c   0  0  0  0  0  0  0  0  0  0  0  0
    1.3849   -1.1216   -1.9430 o   0  0  0  0  0  0  0  0  0  0  0  0
   -0.5114   -2.0214   -0.0037 c   0  0  0  0  0  0  0  0  0  0  0  0
    3.3583    0.9308    0.8814 c   0  0  0  0  0  0  0  0  0  0  0  0
   -2.2794    0.3677   -0.0628 c   0  0  0  0  0  0  0  0  0  0  0  0
   -2.5458    0.9546   -1.2201 c   0  0  0  0  0  0  0  0  0  0  0  0
   -1.1491    0.0782    1.6780 h   0  0  0  0  0  0  0  0  0  0  0  0
   -0.8849   -2.4855    1.2831 o   0  0  0  0  0  0  0  0  0  0  0  0
   -3.3636   -0.3449    0.6953 c   0  0  0  0  0  0  0  0  0  0  0  0
   -1.1375    2.5405    0.8380 h   0  0  0  0  0  0  0  0  0  0  0  0
    0.2661    1.8649    1.6554 h   0  0  0  0  0  0  0  0  0  0  0  0
   -0.0140    2.4972   -1.2984 h   0  0  0  0  0  0  0  0  0  0  0  0
    1.1754    3.0704   -0.1336 h   0  0  0  0  0  0  0  0  0  0  0  0
    2.1943    1.3629   -1.5961 h   0  0  0  0  0  0  0  0  0  0  0  0
   -0.1586    0.1323   -1.9501 h   0  0  0  0  0  0  0  0  0  0  0  0
    1.8734   -1.5483    0.9341 h   0  0  0  0  0  0  0  0  0  0  0  0
    1.1083   -0.4226    2.0375 h   0  0  0  0  0  0  0  0  0  0  0  0
    2.1772   -1.3080   -1.4212 h   0  0  0  0  0  0  0  0  0  0  0  0
    0.2346   -2.6938   -0.4467 h   0  0  0  0  0  0  0  0  0  0  0  0
   -1.3817   -1.9928   -0.6727 h   0  0  0  0  0  0  0  0  0  0  0  0
    3.7951    0.5078    1.7707 h   0  0  0  0  0  0  0  0  0  0  0  0
    3.9145    1.7183    0.4012 h   0  0  0  0  0  0  0  0  0  0  0  0
   -3.5311    0.8997   -1.6549 h   0  0  0  0  0  0  0  0  0  0  0  0
   -1.8253    1.5187   -1.7827 h   0  0  0  0  0  0  0  0  0  0  0  0
   -1.1761   -3.4012    1.2035 h   0  0  0  0  0  0  0  0  0  0  0  0
   -2.9960   -1.2828    1.1043 h   0  0  0  0  0  0  0  0  0  0  0  0
   -3.6824    0.2739    1.5353 h   0  0  0  0  0  0  0  0  0  0  0  0
   -4.2279   -0.5384    0.0646 h   0  0  0  0  0  0  0  0  0  0  0  0
  1  2  1  0  0  0  0
  2  3  1  0  0  0  0
  3  4  1  0  0  0  0
  4  5  1  0  0  0  0
  1  6  1  0  0  0  0
  5  6  1  0  0  0  0
  1  7  1  0  0  0  0
  5  8  1  0  0  0  0
  7  8  1  0  0  0  0
  6  9  1  0  0  0  0
  1 10  1  0  0  0  0
  8 11  2  0  0  0  0
  2 12  1  0  0  0  0
 12 13  2  0  0  0  0
  2 14  1  0  0  0  0
 10 15  1  0  0  0  0
 12 16  1  0  0  0  0
  3 17  1  0  0  0  0
  3 18  1  0  0  0  0
  4 19  1  0  0  0  0
  4 20  1  0  0  0  0
  5 21  1  0  0  0  0
  6 22  1  0  0  0  0
  7 23  1  0  0  0  0
  7 24  1  0  0  0  0
  9 25  1  0  0  0  0
 10 26  1  0  0  0  0
 10 27  1  0  0  0  0
 11 28  1  0  0  0  0
 11 29  1  0  0  0  0
 13 30  1  0  0  0  0
 13 31  1  0  0  0  0
 15 32  1  0  0  0  0
 16 33  1  0  0  0  0
 16 34  1  0  0  0  0
 16 35  1  0  0  0  0
M  END
