 xtb: 6.7.1 (edcfbbe)
          08092620553D

 50 55  0     0  0            999 V2000
    0.0362    0.5422    2.5623 c   0  0  0  0  0  0  0  0  0  0  0  0
    1.5096    0.8794    2.3401 c   0  0  0  0  0  0  0  0  0  0  0  0
   -2.1722   -3.4098   -0.0743 c   0  0  0  0  0  0  0  0  0  0  0  0
   -3.2753   -2.9410    0.6230 c   0  0  0  0  0  0  0  0  0  0  0  0
   -3.2710   -1.6586    1.1272 c   0  0  0  0  0  0  0  0  0  0  0  0
   -2.1811   -0.8103    0.9199 c   0  0  0  0  0  0  0  0  0  0  0  0
   -1.1169   -1.2427    0.1172 c   0  0  0  0  0  0  0  0  0  0  0  0
   -1.1140   -2.5594   -0.3315 c   0  0  0  0  0  0  0  0  0  0  0  0
   -2.1536    0.4042    1.5865 n   0  0  0  0  0  0  0  0  0  0  0  0
   -0.9341    1.1654    1.5386 c   0  0  0  0  0  0  0  0  0  0  0  0
   -0.3349    1.1638    0.1072 c   0  0  0  0  0  0  0  0  0  0  0  0
   -0.0175   -0.2929   -0.3108 c   0  0  0  0  0  0  0  0  0  0  0  0
    1.0238    1.8429    0.1316 c   0  0  0  0  0  0  0  0  0  0  0  0
    1.8766    0.7851    0.8494 c   0  0  0  0  0  0  0  0  0  0  0  0
    1.3780   -0.5757    0.3131 c   0  0  0  0  0  0  0  0  0  0  0  0
    3.3329    1.0421    0.6385 c   0  0  0  0  0  0  0  0  0  0  0  0
    4.1225    0.2057   -0.0101 c   0  0  0  0  0  0  0  0  0  0  0  0
    3.6489   -1.1051   -0.5359 c   0  0  0  0  0  0  0  0  0  0  0  0
    2.1892   -1.1991   -0.7769 n   0  0  0  0  0  0  0  0  0  0  0  0
    1.7670   -0.4725   -1.9937 c   0  0  0  0  0  0  0  0  0  0  0  0
    0.2539   -0.3656   -1.8380 c   0  0  0  0  0  0  0  0  0  0  0  0
    1.8827   -2.5096   -0.8963 o   0  0  0  0  0  0  0  0  0  0  0  0
    1.3437   -1.3351    1.0948 h   0  0  0  0  0  0  0  0  0  0  0  0
   -1.3479    1.8241   -0.7980 c   0  0  0  0  0  0  0  0  0  0  0  0
   -2.4658    1.4092   -1.0136 o   0  0  0  0  0  0  0  0  0  0  0  0
   -0.8947    2.9691   -1.3133 o   0  0  0  0  0  0  0  0  0  0  0  0
   -1.7920    3.7043   -2.1456 c   0  0  0  0  0  0  0  0  0  0  0  0
   -0.2689    0.8651    3.5587 h   0  0  0  0  0  0  0  0  0  0  0  0
   -0.1064   -0.5377    2.5207 h   0  0  0  0  0  0  0  0  0  0  0  0
    1.7227    1.8918    2.6879 h   0  0  0  0  0  0  0  0  0  0  0  0
    2.1247    0.1905    2.9221 h   0  0  0  0  0  0  0  0  0  0  0  0
   -2.1420   -4.4287   -0.4304 h   0  0  0  0  0  0  0  0  0  0  0  0
   -4.1263   -3.5844    0.7937 h   0  0  0  0  0  0  0  0  0  0  0  0
   -4.1084   -1.2925    1.7035 h   0  0  0  0  0  0  0  0  0  0  0  0
   -0.2455   -2.9252   -0.8618 h   0  0  0  0  0  0  0  0  0  0  0  0
   -3.0241    0.9112    1.5937 h   0  0  0  0  0  0  0  0  0  0  0  0
   -1.1529    2.2011    1.8196 h   0  0  0  0  0  0  0  0  0  0  0  0
    1.0026    2.7849    0.6772 h   0  0  0  0  0  0  0  0  0  0  0  0
    1.3791    2.0473   -0.8765 h   0  0  0  0  0  0  0  0  0  0  0  0
    3.7039    1.9795    1.0253 h   0  0  0  0  0  0  0  0  0  0  0  0
    5.1721    0.4132   -0.1559 h   0  0  0  0  0  0  0  0  0  0  0  0
    4.1367   -1.3669   -1.4773 h   0  0  0  0  0  0  0  0  0  0  0  0
    3.8769   -1.9069    0.1757 h   0  0  0  0  0  0  0  0  0  0  0  0
    2.2628    0.4973   -2.0217 h   0  0  0  0  0  0  0  0  0  0  0  0
    2.0536   -1.0685   -2.8599 h   0  0  0  0  0  0  0  0  0  0  0  0
   -0.2231   -1.2516   -2.2529 h   0  0  0  0  0  0  0  0  0  0  0  0
   -0.1363    0.5045   -2.3631 h   0  0  0  0  0  0  0  0  0  0  0  0
   -2.6568    4.0327   -1.5670 h   0  0  0  0  0  0  0  0  0  0  0  0
   -1.2255    4.5559   -2.5116 h   0  0  0  0  0  0  0  0  0  0  0  0
   -2.1382    3.0807   -2.9716 h   0  0  0  0  0  0  0  0  0  0  0  0
  1  2  1  0  0  0  0
  3  4  4  0  0  0  0
  4  5  4  0  0  0  0
  5  6  4  0  0  0  0
  6  7  4  0  0  0  0
  3  8  4  0  0  0  0
  7  8  4  0  0  0  0
  6  9  1  0  0  0  0
  1 10  1  0  0  0  0
  9 10  1  0  0  0  0
 10 11  1  0  0  0  0
  7 12  1  0  0  0  0
 11 12  1  0  0  0  0
 11 13  1  0  0  0  0
  2 14  1  0  0  0  0
 13 14  1  0  0  0  0
 12 15  1  0  0  0  0
 14 15  1  0  0  0  0
 14 16  1  0  0  0  0
 16 17  2  0  0  0  0
 17 18  1  0  0  0  0
 15 19  1  0  0  0  0
 18 19  1  0  0  0  0
 19 20  1  0  0  0  0
 12 21  1  0  0  0  0
 20 21  1  0  0  0  0
 19 22  1  0  0  0  0
 15 23  1  0  0  0  0
 11 24  1  0  0  0  0
 24 25  2  0  0  0  0
 24 26  1  0  0  0  0
 26 27  1  0  0  0  0
  1 28  1  0  0  0  0
  1 29  1  0  0  0  0
  2 30  1  0  0  0  0
  2 31  1  0  0  0  0
  3 32  1  0  0  0  0
  4 33  1  0  0  0  0
  5 34  1  0  0  0  0
  8 35  1  0  0  0  0
  9 36  1  0  0  0  0
 10 37  1  0  0  0  0
 13 38  1  0  0  0  0
 13 39  1  0  0  0  0
 16 40  1  0  0  0  0
 17 41  1  0  0  0  0
 18 42  1  0  0  0  0
 18 43  1  0  0  0  0
 20 44  1  0  0  0  0
 20 45  1  0  0  0  0
 21 46  1  0  0  0  0
 21 47  1  0  0  0  0
 27 48  1  0  0  0  0
 27 49  1  0  0  0  0
 27 50  1  0  0  0  0
M  END
