 xtb: 6.7.1 (edcfbbe)
          08092616283D

 35 36  0     0  0            999 V2000
    0.1468   -0.5964    0.3814 c   0  0  0  0  0  0  0  0  0  0  0  0
   -0.9187    0.4827    0.7191 c   0  0  0  0  0  0  0  0  0  0  0  0
   -0.3429    1.9055    0.5483 c   0  0  0  0  0  0  0  0  0  0  0  0
    0.5614    2.0957   -0.6689 c   0  0  0  0  0  0  0  0  0  0  0  0
    1.5310    0.9189   -0.8081 c   0  0  0  0  0  0  0  0  0  0  0  0
    0.7240   -0.3653   -1.0315 c   0  0  0  0  0  0  0  0  0  0  0  0
    1.3838   -0.3527    1.2721 c   0  0  0  0  0  0  0  0  0  0  0  0
    2.2124    0.6525    0.5109 c   0  0  0  0  0  0  0  0  0  0  0  0
    1.5297   -1.4268   -1.4973 o   0  0  0  0  0  0  0  0  0  0  0  0
   -0.4036   -2.0170    0.5756 c   0  0  0  0  0  0  0  0  0  0  0  0
    3.3438    1.1965    0.9216 c   0  0  0  0  0  0  0  0  0  0  0  0
   -2.2580    0.3148    0.0266 c   0  0  0  0  0  0  0  0  0  0  0  0
   -2.5116    0.6296   -1.2370 c   0  0  0  0  0  0  0  0  0  0  0  0
   -1.1251    0.3606    1.7896 h   0  0  0  0  0  0  0  0  0  0  0  0
   -1.3223   -2.4368   -0.4063 o   0  0  0  0  0  0  0  0  0  0  0  0
   -3.3659   -0.1648    0.9258 c   0  0  0  0  0  0  0  0  0  0  0  0
   -1.1706    2.6158    0.5016 h   0  0  0  0  0  0  0  0  0  0  0  0
    0.2419    2.1448    1.4385 h   0  0  0  0  0  0  0  0  0  0  0  0
   -0.0234    2.1855   -1.5846 h   0  0  0  0  0  0  0  0  0  0  0  0
    1.1267    3.0220   -0.5469 h   0  0  0  0  0  0  0  0  0  0  0  0
    2.2388    1.1010   -1.6200 h   0  0  0  0  0  0  0  0  0  0  0  0
   -0.0510   -0.2665   -1.7910 h   0  0  0  0  0  0  0  0  0  0  0  0
    1.9456   -1.2802    1.4120 h   0  0  0  0  0  0  0  0  0  0  0  0
    1.1149    0.0082    2.2650 h   0  0  0  0  0  0  0  0  0  0  0  0
    2.2790   -1.5229   -0.8949 h   0  0  0  0  0  0  0  0  0  0  0  0
   -0.8554   -2.0937    1.5775 h   0  0  0  0  0  0  0  0  0  0  0  0
    0.4134   -2.7418    0.5171 h   0  0  0  0  0  0  0  0  0  0  0  0
    3.7688    0.9657    1.8844 h   0  0  0  0  0  0  0  0  0  0  0  0
    3.8880    1.8984    0.3127 h   0  0  0  0  0  0  0  0  0  0  0  0
   -3.4995    0.5082   -1.6515 h   0  0  0  0  0  0  0  0  0  0  0  0
   -1.7733    1.0200   -1.9122 h   0  0  0  0  0  0  0  0  0  0  0  0
   -1.9690   -1.7281   -0.5436 h   0  0  0  0  0  0  0  0  0  0  0  0
   -4.2820   -0.3345    0.3652 h   0  0  0  0  0  0  0  0  0  0  0  0
   -3.0933   -1.0865    1.4375 h   0  0  0  0  0  0  0  0  0  0  0  0
   -3.5649    0.5875    1.6899 h   0  0  0  0  0  0  0  0  0  0  0  0
  1  2  1  0  0  0  0
  2  3  1  0  0  0  0
  3  4  1  0  0  0  0
  4  5  1  0  0  0  0
  1  6  1  0  0  0  0
  5  6  1  0  0  0  0
  1  7  1  0  0  0  0
  5  8  1  0  0  0  0
  7  8  1  0  0  0  0
  6  9  1  0  0  0  0
  1 10  1  0  0  0  0
  8 11  2  0  0  0  0
  2 12  1  0  0  0  0
 12 13  2  0  0  0  0
  2 14  1  0  0  0  0
 10 15  1  0  0  0  0
 12 16  1  0  0  0  0
  3 17  1  0  0  0  0
  3 18  1  0  0  0  0
  4 19  1  0  0  0  0
  4 20  1  0  0  0  0
  5 21  1  0  0  0  0
  6 22  1  0  0  0  0
  7 23  1  0  0  0  0
  7 24  1  0  0  0  0
  9 25  1  0  0  0  0
 10 26  1  0  0  0  0
 10 27  1  0  0  0  0
 11 28  1  0  0  0  0
 11 29  1  0  0  0  0
 13 30  1  0  0  0  0
 13 31  1  0  0  0  0
 15 32  1  0  0  0  0
 16 33  1  0  0  0  0
 16 34  1  0  0  0  0
 16 35  1  0  0  0  0
M  END
