 xtb: 6.7.1 (edcfbbe)
          08092615283D

 35 36  0     0  0            999 V2000
   -0.0432   -0.5541    0.3066 c   0  0  0  0  0  0  0  0  0  0  0  0
   -1.0291    0.5773    0.6995 c   0  0  0  0  0  0  0  0  0  0  0  0
   -0.3434    1.9579    0.6230 c   0  0  0  0  0  0  0  0  0  0  0  0
    0.5833    2.1577   -0.5762 c   0  0  0  0  0  0  0  0  0  0  0  0
    1.4475    0.9150   -0.8067 c   0  0  0  0  0  0  0  0  0  0  0  0
    0.5344   -0.2779   -1.0974 c   0  0  0  0  0  0  0  0  0  0  0  0
    1.2153   -0.4709    1.1910 c   0  0  0  0  0  0  0  0  0  0  0  0
    2.1197    0.5035    0.4816 c   0  0  0  0  0  0  0  0  0  0  0  0
    1.2580   -1.3699   -1.6479 o   0  0  0  0  0  0  0  0  0  0  0  0
   -0.7390   -1.9204    0.4178 c   0  0  0  0  0  0  0  0  0  0  0  0
    3.2997    0.9216    0.9031 c   0  0  0  0  0  0  0  0  0  0  0  0
   -2.3591    0.5324   -0.0285 c   0  0  0  0  0  0  0  0  0  0  0  0
   -2.5741    0.9761   -1.2581 c   0  0  0  0  0  0  0  0  0  0  0  0
   -1.2656    0.4073    1.7565 h   0  0  0  0  0  0  0  0  0  0  0  0
    0.1251   -3.0171    0.2185 o   0  0  0  0  0  0  0  0  0  0  0  0
   -3.5037    0.0123    0.7954 c   0  0  0  0  0  0  0  0  0  0  0  0
   -1.1128    2.7319    0.6210 h   0  0  0  0  0  0  0  0  0  0  0  0
    0.2508    2.0910    1.5290 h   0  0  0  0  0  0  0  0  0  0  0  0
    0.0150    2.3677   -1.4825 h   0  0  0  0  0  0  0  0  0  0  0  0
    1.2280    3.0182   -0.3852 h   0  0  0  0  0  0  0  0  0  0  0  0
    2.1590    1.0942   -1.6169 h   0  0  0  0  0  0  0  0  0  0  0  0
   -0.2453   -0.0705   -1.8304 h   0  0  0  0  0  0  0  0  0  0  0  0
    1.6821   -1.4582    1.2588 h   0  0  0  0  0  0  0  0  0  0  0  0
    0.9866   -0.1544    2.2087 h   0  0  0  0  0  0  0  0  0  0  0  0
    2.0970   -1.4366   -1.1710 h   0  0  0  0  0  0  0  0  0  0  0  0
   -1.5659   -1.9612   -0.3044 h   0  0  0  0  0  0  0  0  0  0  0  0
   -1.1407   -2.0491    1.4268 h   0  0  0  0  0  0  0  0  0  0  0  0
    3.7154    0.5947    1.8417 h   0  0  0  0  0  0  0  0  0  0  0  0
    3.8942    1.6130    0.3296 h   0  0  0  0  0  0  0  0  0  0  0  0
   -3.5573    0.9326   -1.6982 h   0  0  0  0  0  0  0  0  0  0  0  0
   -1.8116    1.4059   -1.8803 h   0  0  0  0  0  0  0  0  0  0  0  0
    0.5294   -2.8913   -0.6567 h   0  0  0  0  0  0  0  0  0  0  0  0
   -3.2788   -0.9701    1.2046 h   0  0  0  0  0  0  0  0  0  0  0  0
   -3.6867    0.6865    1.6327 h   0  0  0  0  0  0  0  0  0  0  0  0
   -4.4126   -0.0548    0.2032 h   0  0  0  0  0  0  0  0  0  0  0  0
  1  2  1  0  0  0  0
  2  3  1  0  0  0  0
  3  4  1  0  0  0  0
  4  5  1  0  0  0  0
  1  6  1  0  0  0  0
  5  6  1  0  0  0  0
  1  7  1  0  0  0  0
  5  8  1  0  0  0  0
  7  8  1  0  0  0  0
  6  9  1  0  0  0  0
  1 10  1  0  0  0  0
  8 11  2  0  0  0  0
  2 12  1  0  0  0  0
 12 13  2  0  0  0  0
  2 14  1  0  0  0  0
 10 15  1  0  0  0  0
 12 16  1  0  0  0  0
  3 17  1  0  0  0  0
  3 18  1  0  0  0  0
  4 19  1  0  0  0  0
  4 20  1  0  0  0  0
  5 21  1  0  0  0  0
  6 22  1  0  0  0  0
  7 23  1  0  0  0  0
  7 24  1  0  0  0  0
  9 25  1  0  0  0  0
 10 26  1  0  0  0  0
 10 27  1  0  0  0  0
 11 28  1  0  0  0  0
 11 29  1  0  0  0  0
 13 30  1  0  0  0  0
 13 31  1  0  0  0  0
 15 32  1  0  0  0  0
 16 33  1  0  0  0  0
 16 34  1  0  0  0  0
 16 35  1  0  0  0  0
M  END
