 xtb: 6.7.1 (edcfbbe)
          08092612213D

 54 57  0     0  0            999 V2000
   -1.7058   -0.9755    2.3003 c   0  0  0  0  0  0  0  0  0  0  0  0
   -2.1010   -1.7509    1.0555 c   0  0  0  0  0  0  0  0  0  0  0  0
   -2.6141   -0.7968   -0.0379 c   0  0  0  0  0  0  0  0  0  0  0  0
   -1.6923    0.4865   -0.1527 c   0  0  0  0  0  0  0  0  0  0  0  0
   -0.3004    0.3313    0.5420 c   0  0  0  0  0  0  0  0  0  0  0  0
   -0.4921   -0.0800    2.0305 c   0  0  0  0  0  0  0  0  0  0  0  0
   -1.4336    0.8351   -1.6291 c   0  0  0  0  0  0  0  0  0  0  0  0
   -0.6059    2.1064   -1.7885 c   0  0  0  0  0  0  0  0  0  0  0  0
    0.7281    2.0251   -1.0434 c   0  0  0  0  0  0  0  0  0  0  0  0
    0.5570    1.6678    0.4580 c   0  0  0  0  0  0  0  0  0  0  0  0
    0.7680   -0.6608   -0.0122 c   0  0  0  0  0  0  0  0  0  0  0  0
    1.9114    1.1786    0.9976 c   0  0  0  0  0  0  0  0  0  0  0  0
    2.0142   -0.1902    0.4269 c   0  0  0  0  0  0  0  0  0  0  0  0
    3.2100   -0.8647    0.2728 c   0  0  0  0  0  0  0  0  0  0  0  0
    3.1936   -2.0932   -0.3715 c   0  0  0  0  0  0  0  0  0  0  0  0
    1.9997   -2.5527   -0.8711 c   0  0  0  0  0  0  0  0  0  0  0  0
    0.7889   -1.8618   -0.7270 c   0  0  0  0  0  0  0  0  0  0  0  0
   -0.2359   -2.4940   -1.3499 o   0  0  0  0  0  0  0  0  0  0  0  0
    4.3604   -0.2900    0.7502 o   0  0  0  0  0  0  0  0  0  0  0  0
   -2.6104   -1.4497   -1.3139 o   0  0  0  0  0  0  0  0  0  0  0  0
   -4.1015   -0.5144    0.2441 c   0  0  0  0  0  0  0  0  0  0  0  0
   -2.4668    1.6570    0.4752 c   0  0  0  0  0  0  0  0  0  0  0  0
    1.5184    3.3123   -1.2868 c   0  0  0  0  0  0  0  0  0  0  0  0
    0.1700    2.9064    1.2789 c   0  0  0  0  0  0  0  0  0  0  0  0
   -2.5567   -0.3847    2.6437 h   0  0  0  0  0  0  0  0  0  0  0  0
   -1.4639   -1.6765    3.1014 h   0  0  0  0  0  0  0  0  0  0  0  0
   -2.8835   -2.4753    1.2988 h   0  0  0  0  0  0  0  0  0  0  0  0
   -1.2364   -2.3121    0.7077 h   0  0  0  0  0  0  0  0  0  0  0  0
    0.4028   -0.6136    2.3509 h   0  0  0  0  0  0  0  0  0  0  0  0
   -0.5760    0.8059    2.6577 h   0  0  0  0  0  0  0  0  0  0  0  0
   -0.8940    0.0219   -2.1135 h   0  0  0  0  0  0  0  0  0  0  0  0
   -2.3865    0.9503   -2.1486 h   0  0  0  0  0  0  0  0  0  0  0  0
   -0.3972    2.2468   -2.8522 h   0  0  0  0  0  0  0  0  0  0  0  0
   -1.1707    2.9814   -1.4650 h   0  0  0  0  0  0  0  0  0  0  0  0
    1.2969    1.2055   -1.4952 h   0  0  0  0  0  0  0  0  0  0  0  0
    1.9139    1.1615    2.0893 h   0  0  0  0  0  0  0  0  0  0  0  0
    2.7504    1.7968    0.6813 h   0  0  0  0  0  0  0  0  0  0  0  0
    4.1031   -2.6626   -0.5053 h   0  0  0  0  0  0  0  0  0  0  0  0
    1.9538   -3.4831   -1.4150 h   0  0  0  0  0  0  0  0  0  0  0  0
   -1.0535   -1.9552   -1.3813 h   0  0  0  0  0  0  0  0  0  0  0  0
    5.1032   -0.8704    0.5493 h   0  0  0  0  0  0  0  0  0  0  0  0
   -3.1633   -2.2374   -1.2539 h   0  0  0  0  0  0  0  0  0  0  0  0
   -4.5335    0.0905   -0.5486 h   0  0  0  0  0  0  0  0  0  0  0  0
   -4.6312   -1.4683    0.2537 h   0  0  0  0  0  0  0  0  0  0  0  0
   -4.2714   -0.0351    1.2005 h   0  0  0  0  0  0  0  0  0  0  0  0
   -2.6673    1.4935    1.5279 h   0  0  0  0  0  0  0  0  0  0  0  0
   -1.9218    2.5786    0.3810 h   0  0  0  0  0  0  0  0  0  0  0  0
   -3.4088    1.7995   -0.0444 h   0  0  0  0  0  0  0  0  0  0  0  0
    0.9604    4.1919   -0.9761 h   0  0  0  0  0  0  0  0  0  0  0  0
    2.4684    3.3045   -0.7604 h   0  0  0  0  0  0  0  0  0  0  0  0
    1.7274    3.4098   -2.3503 h   0  0  0  0  0  0  0  0  0  0  0  0
   -0.3993    3.6357    0.7107 h   0  0  0  0  0  0  0  0  0  0  0  0
   -0.3894    2.6605    2.1761 h   0  0  0  0  0  0  0  0  0  0  0  0
    1.0849    3.4051    1.5951 h   0  0  0  0  0  0  0  0  0  0  0  0
  1  2  1  0  0  0  0
  2  3  1  0  0  0  0
  3  4  1  0  0  0  0
  4  5  1  0  0  0  0
  1  6  1  0  0  0  0
  5  6  1  0  0  0  0
  4  7  1  0  0  0  0
  7  8  1  0  0  0  0
  8  9  1  0  0  0  0
  5 10  1  0  0  0  0
  9 10  1  0  0  0  0
  5 11  1  0  0  0  0
 10 12  1  0  0  0  0
 11 13  4  0  0  0  0
 12 13  1  0  0  0  0
 13 14  4  0  0  0  0
 14 15  4  0  0  0  0
 15 16  4  0  0  0  0
 11 17  4  0  0  0  0
 16 17  4  0  0  0  0
 17 18  1  0  0  0  0
 14 19  1  0  0  0  0
  3 20  1  0  0  0  0
  3 21  1  0  0  0  0
  4 22  1  0  0  0  0
  9 23  1  0  0  0  0
 10 24  1  0  0  0  0
  1 25  1  0  0  0  0
  1 26  1  0  0  0  0
  2 27  1  0  0  0  0
  2 28  1  0  0  0  0
  6 29  1  0  0  0  0
  6 30  1  0  0  0  0
  7 31  1  0  0  0  0
  7 32  1  0  0  0  0
  8 33  1  0  0  0  0
  8 34  1  0  0  0  0
  9 35  1  0  0  0  0
 12 36  1  0  0  0  0
 12 37  1  0  0  0  0
 15 38  1  0  0  0  0
 16 39  1  0  0  0  0
 18 40  1  0  0  0  0
 19 41  1  0  0  0  0
 20 42  1  0  0  0  0
 21 43  1  0  0  0  0
 21 44  1  0  0  0  0
 21 45  1  0  0  0  0
 22 46  1  0  0  0  0
 22 47  1  0  0  0  0
 22 48  1  0  0  0  0
 23 49  1  0  0  0  0
 23 50  1  0  0  0  0
 23 51  1  0  0  0  0
 24 52  1  0  0  0  0
 24 53  1  0  0  0  0
 24 54  1  0  0  0  0
M  END
