 xtb: 6.7.1 (edcfbbe)
          08092617483D

 35 36  0     0  0            999 V2000
    0.0288   -0.7719   -0.0274 c   0  0  0  0  0  0  0  0  0  0  0  0
    0.6412    0.4215   -0.8132 c   0  0  0  0  0  0  0  0  0  0  0  0
   -0.4063    1.5350   -0.9874 c   0  0  0  0  0  0  0  0  0  0  0  0
   -1.2349    1.8064    0.2666 c   0  0  0  0  0  0  0  0  0  0  0  0
   -1.7830    0.4934    0.8378 c   0  0  0  0  0  0  0  0  0  0  0  0
   -0.6021   -0.3659    1.3162 c   0  0  0  0  0  0  0  0  0  0  0  0
   -1.2372   -1.2505   -0.7730 c   0  0  0  0  0  0  0  0  0  0  0  0
   -2.3456   -0.3618   -0.2647 c   0  0  0  0  0  0  0  0  0  0  0  0
    0.2842    0.2501    2.2102 o   0  0  0  0  0  0  0  0  0  0  0  0
    1.0417   -1.9084    0.1547 c   0  0  0  0  0  0  0  0  0  0  0  0
   -3.5883   -0.3394   -0.7091 c   0  0  0  0  0  0  0  0  0  0  0  0
    1.9903    0.9102   -0.3155 c   0  0  0  0  0  0  0  0  0  0  0  0
    3.0930    0.3209   -0.7570 c   0  0  0  0  0  0  0  0  0  0  0  0
    0.8467    0.0151   -1.8118 h   0  0  0  0  0  0  0  0  0  0  0  0
    1.4998   -2.4555   -1.0571 o   0  0  0  0  0  0  0  0  0  0  0  0
    2.0829    2.0770    0.6195 c   0  0  0  0  0  0  0  0  0  0  0  0
    0.0889    2.4509   -1.3129 h   0  0  0  0  0  0  0  0  0  0  0  0
   -1.0924    1.2461   -1.7869 h   0  0  0  0  0  0  0  0  0  0  0  0
   -0.6288    2.2923    1.0310 h   0  0  0  0  0  0  0  0  0  0  0  0
   -2.0644    2.4699    0.0130 h   0  0  0  0  0  0  0  0  0  0  0  0
   -2.5100    0.6974    1.6289 h   0  0  0  0  0  0  0  0  0  0  0  0
   -1.0020   -1.2838    1.7854 h   0  0  0  0  0  0  0  0  0  0  0  0
   -1.1383   -1.1939   -1.8577 h   0  0  0  0  0  0  0  0  0  0  0  0
   -1.4593   -2.2900   -0.5089 h   0  0  0  0  0  0  0  0  0  0  0  0
   -0.1972    0.4591    3.0179 h   0  0  0  0  0  0  0  0  0  0  0  0
    0.5848   -2.6940    0.7772 h   0  0  0  0  0  0  0  0  0  0  0  0
    1.9264   -1.5325    0.6703 h   0  0  0  0  0  0  0  0  0  0  0  0
   -3.9153   -0.9748   -1.5150 h   0  0  0  0  0  0  0  0  0  0  0  0
   -4.3292    0.3172   -0.2860 h   0  0  0  0  0  0  0  0  0  0  0  0
    4.0708    0.6409   -0.4367 h   0  0  0  0  0  0  0  0  0  0  0  0
    3.0669   -0.5176   -1.4314 h   0  0  0  0  0  0  0  0  0  0  0  0
    0.7401   -2.7846   -1.5504 h   0  0  0  0  0  0  0  0  0  0  0  0
    1.5928    2.9574    0.2078 h   0  0  0  0  0  0  0  0  0  0  0  0
    1.6150    1.8290    1.5675 h   0  0  0  0  0  0  0  0  0  0  0  0
    3.1264    2.3223    0.8018 h   0  0  0  0  0  0  0  0  0  0  0  0
  1  2  1  0  0  0  0
  2  3  1  0  0  0  0
  3  4  1  0  0  0  0
  4  5  1  0  0  0  0
  1  6  1  0  0  0  0
  5  6  1  0  0  0  0
  1  7  1  0  0  0  0
  5  8  1  0  0  0  0
  7  8  1  0  0  0  0
  6  9  1  0  0  0  0
  1 10  1  0  0  0  0
  8 11  2  0  0  0  0
  2 12  1  0  0  0  0
 12 13  2  0  0  0  0
  2 14  1  0  0  0  0
 10 15  1  0  0  0  0
 12 16  1  0  0  0  0
  3 17  1  0  0  0  0
  3 18  1  0  0  0  0
  4 19  1  0  0  0  0
  4 20  1  0  0  0  0
  5 21  1  0  0  0  0
  6 22  1  0  0  0  0
  7 23  1  0  0  0  0
  7 24  1  0  0  0  0
  9 25  1  0  0  0  0
 10 26  1  0  0  0  0
 10 27  1  0  0  0  0
 11 28  1  0  0  0  0
 11 29  1  0  0  0  0
 13 30  1  0  0  0  0
 13 31  1  0  0  0  0
 15 32  1  0  0  0  0
 16 33  1  0  0  0  0
 16 34  1  0  0  0  0
 16 35  1  0  0  0  0
M  END
