 xtb: 6.7.1 (edcfbbe)
          08092615283D

 35 36  0     0  0            999 V2000
    0.0885   -0.6523    0.0976 c   0  0  0  0  0  0  0  0  0  0  0  0
   -0.9589    0.3131    0.7177 c   0  0  0  0  0  0  0  0  0  0  0  0
   -0.3551    1.7169    0.8991 c   0  0  0  0  0  0  0  0  0  0  0  0
    0.4770    2.2054   -0.2871 c   0  0  0  0  0  0  0  0  0  0  0  0
    1.4255    1.1027   -0.7679 c   0  0  0  0  0  0  0  0  0  0  0  0
    0.5968   -0.0944   -1.2480 c   0  0  0  0  0  0  0  0  0  0  0  0
    1.3732   -0.6251    0.9550 c   0  0  0  0  0  0  0  0  0  0  0  0
    2.1773    0.5274    0.4050 c   0  0  0  0  0  0  0  0  0  0  0  0
    1.3606   -1.0132   -1.9926 o   0  0  0  0  0  0  0  0  0  0  0  0
   -0.4685   -2.0746   -0.0397 c   0  0  0  0  0  0  0  0  0  0  0  0
    3.3399    0.9511    0.8653 c   0  0  0  0  0  0  0  0  0  0  0  0
   -2.3070    0.3046    0.0197 c   0  0  0  0  0  0  0  0  0  0  0  0
   -3.2306   -0.5641    0.4078 c   0  0  0  0  0  0  0  0  0  0  0  0
   -1.1576   -0.0843    1.7208 h   0  0  0  0  0  0  0  0  0  0  0  0
   -0.8332   -2.6529    1.1911 o   0  0  0  0  0  0  0  0  0  0  0  0
   -2.6222    1.3001   -1.0583 c   0  0  0  0  0  0  0  0  0  0  0  0
   -1.1545    2.4284    1.1128 h   0  0  0  0  0  0  0  0  0  0  0  0
    0.2934    1.7015    1.7777 h   0  0  0  0  0  0  0  0  0  0  0  0
   -0.1595    2.5089   -1.1180 h   0  0  0  0  0  0  0  0  0  0  0  0
    1.0594    3.0761    0.0228 h   0  0  0  0  0  0  0  0  0  0  0  0
    2.0882    1.4839   -1.5483 h   0  0  0  0  0  0  0  0  0  0  0  0
   -0.2159    0.1839   -1.9173 h   0  0  0  0  0  0  0  0  0  0  0  0
    1.9327   -1.5600    0.8392 h   0  0  0  0  0  0  0  0  0  0  0  0
    1.1659   -0.4989    2.0189 h   0  0  0  0  0  0  0  0  0  0  0  0
    2.1727   -1.1987   -1.5069 h   0  0  0  0  0  0  0  0  0  0  0  0
    0.2728   -2.7008   -0.5559 h   0  0  0  0  0  0  0  0  0  0  0  0
   -1.3782   -2.0610   -0.6423 h   0  0  0  0  0  0  0  0  0  0  0  0
    3.8145    0.4965    1.7190 h   0  0  0  0  0  0  0  0  0  0  0  0
    3.8616    1.7755    0.4100 h   0  0  0  0  0  0  0  0  0  0  0  0
   -4.2027   -0.6032   -0.0551 h   0  0  0  0  0  0  0  0  0  0  0  0
   -3.0463   -1.2857    1.1848 h   0  0  0  0  0  0  0  0  0  0  0  0
   -0.0522   -2.6950    1.7539 h   0  0  0  0  0  0  0  0  0  0  0  0
   -2.4813    2.3198   -0.7051 h   0  0  0  0  0  0  0  0  0  0  0  0
   -1.9951    1.1574   -1.9360 h   0  0  0  0  0  0  0  0  0  0  0  0
   -3.6591    1.1895   -1.3669 h   0  0  0  0  0  0  0  0  0  0  0  0
  1  2  1  0  0  0  0
  2  3  1  0  0  0  0
  3  4  1  0  0  0  0
  4  5  1  0  0  0  0
  1  6  1  0  0  0  0
  5  6  1  0  0  0  0
  1  7  1  0  0  0  0
  5  8  1  0  0  0  0
  7  8  1  0  0  0  0
  6  9  1  0  0  0  0
  1 10  1  0  0  0  0
  8 11  2  0  0  0  0
  2 12  1  0  0  0  0
 12 13  2  0  0  0  0
  2 14  1  0  0  0  0
 10 15  1  0  0  0  0
 12 16  1  0  0  0  0
  3 17  1  0  0  0  0
  3 18  1  0  0  0  0
  4 19  1  0  0  0  0
  4 20  1  0  0  0  0
  5 21  1  0  0  0  0
  6 22  1  0  0  0  0
  7 23  1  0  0  0  0
  7 24  1  0  0  0  0
  9 25  1  0  0  0  0
 10 26  1  0  0  0  0
 10 27  1  0  0  0  0
 11 28  1  0  0  0  0
 11 29  1  0  0  0  0
 13 30  1  0  0  0  0
 13 31  1  0  0  0  0
 15 32  1  0  0  0  0
 16 33  1  0  0  0  0
 16 34  1  0  0  0  0
 16 35  1  0  0  0  0
M  END
