 xtb: 6.7.1 (edcfbbe)
          08092617053D

 35 36  0     0  0            999 V2000
   -0.0415   -0.5623    0.3058 c   0  0  0  0  0  0  0  0  0  0  0  0
   -1.0156    0.5663    0.7290 c   0  0  0  0  0  0  0  0  0  0  0  0
   -0.3567    1.9576    0.6007 c   0  0  0  0  0  0  0  0  0  0  0  0
    0.5636    2.1413   -0.6067 c   0  0  0  0  0  0  0  0  0  0  0  0
    1.4491    0.9080   -0.8068 c   0  0  0  0  0  0  0  0  0  0  0  0
    0.5431   -0.2893   -1.0970 c   0  0  0  0  0  0  0  0  0  0  0  0
    1.2217   -0.4857    1.1857 c   0  0  0  0  0  0  0  0  0  0  0  0
    2.1124    0.5112    0.4903 c   0  0  0  0  0  0  0  0  0  0  0  0
    1.2675   -1.3863   -1.6368 o   0  0  0  0  0  0  0  0  0  0  0  0
   -0.7517   -1.9206    0.4219 c   0  0  0  0  0  0  0  0  0  0  0  0
    3.2764    0.9565    0.9283 c   0  0  0  0  0  0  0  0  0  0  0  0
   -2.3972    0.5028    0.1090 c   0  0  0  0  0  0  0  0  0  0  0  0
   -3.4332    0.1643    0.8654 c   0  0  0  0  0  0  0  0  0  0  0  0
   -1.1867    0.4060    1.8003 h   0  0  0  0  0  0  0  0  0  0  0  0
    0.1000   -3.0275    0.2276 o   0  0  0  0  0  0  0  0  0  0  0  0
   -2.6125    0.8653   -1.3306 c   0  0  0  0  0  0  0  0  0  0  0  0
   -1.1394    2.7185    0.5882 h   0  0  0  0  0  0  0  0  0  0  0  0
    0.2405    2.1266    1.4987 h   0  0  0  0  0  0  0  0  0  0  0  0
   -0.0063    2.3109   -1.5213 h   0  0  0  0  0  0  0  0  0  0  0  0
    1.1907    3.0196   -0.4401 h   0  0  0  0  0  0  0  0  0  0  0  0
    2.1669    1.0853   -1.6118 h   0  0  0  0  0  0  0  0  0  0  0  0
   -0.2191   -0.0755   -1.8443 h   0  0  0  0  0  0  0  0  0  0  0  0
    1.6980   -1.4697    1.2333 h   0  0  0  0  0  0  0  0  0  0  0  0
    0.9960   -0.1907    2.2104 h   0  0  0  0  0  0  0  0  0  0  0  0
    2.0992   -1.4595   -1.1490 h   0  0  0  0  0  0  0  0  0  0  0  0
   -1.5838   -1.9571   -0.2943 h   0  0  0  0  0  0  0  0  0  0  0  0
   -1.1625   -2.0357    1.4286 h   0  0  0  0  0  0  0  0  0  0  0  0
    3.6873    0.6370    1.8715 h   0  0  0  0  0  0  0  0  0  0  0  0
    3.8619    1.6632    0.3643 h   0  0  0  0  0  0  0  0  0  0  0  0
   -4.4360    0.1286    0.4727 h   0  0  0  0  0  0  0  0  0  0  0  0
   -3.3280   -0.1004    1.9042 h   0  0  0  0  0  0  0  0  0  0  0  0
    0.5101   -2.9077   -0.6458 h   0  0  0  0  0  0  0  0  0  0  0  0
   -2.0719    1.7689   -1.5966 h   0  0  0  0  0  0  0  0  0  0  0  0
   -2.2822    0.0604   -1.9863 h   0  0  0  0  0  0  0  0  0  0  0  0
   -3.6716    1.0286   -1.5176 h   0  0  0  0  0  0  0  0  0  0  0  0
  1  2  1  0  0  0  0
  2  3  1  0  0  0  0
  3  4  1  0  0  0  0
  4  5  1  0  0  0  0
  1  6  1  0  0  0  0
  5  6  1  0  0  0  0
  1  7  1  0  0  0  0
  5  8  1  0  0  0  0
  7  8  1  0  0  0  0
  6  9  1  0  0  0  0
  1 10  1  0  0  0  0
  8 11  2  0  0  0  0
  2 12  1  0  0  0  0
 12 13  2  0  0  0  0
  2 14  1  0  0  0  0
 10 15  1  0  0  0  0
 12 16  1  0  0  0  0
  3 17  1  0  0  0  0
  3 18  1  0  0  0  0
  4 19  1  0  0  0  0
  4 20  1  0  0  0  0
  5 21  1  0  0  0  0
  6 22  1  0  0  0  0
  7 23  1  0  0  0  0
  7 24  1  0  0  0  0
  9 25  1  0  0  0  0
 10 26  1  0  0  0  0
 10 27  1  0  0  0  0
 11 28  1  0  0  0  0
 11 29  1  0  0  0  0
 13 30  1  0  0  0  0
 13 31  1  0  0  0  0
 15 32  1  0  0  0  0
 16 33  1  0  0  0  0
 16 34  1  0  0  0  0
 16 35  1  0  0  0  0
M  END
