 xtb: 6.7.1 (edcfbbe)
          08092617483D

 35 36  0     0  0            999 V2000
    0.0131   -0.7608   -0.0448 c   0  0  0  0  0  0  0  0  0  0  0  0
    0.6312    0.4735   -0.7681 c   0  0  0  0  0  0  0  0  0  0  0  0
   -0.4280    1.5909   -0.9015 c   0  0  0  0  0  0  0  0  0  0  0  0
   -1.3097    1.8061    0.3301 c   0  0  0  0  0  0  0  0  0  0  0  0
   -1.8066    0.4655    0.8786 c   0  0  0  0  0  0  0  0  0  0  0  0
   -0.6030   -0.3860    1.3195 c   0  0  0  0  0  0  0  0  0  0  0  0
   -1.2498   -1.2023   -0.8117 c   0  0  0  0  0  0  0  0  0  0  0  0
   -2.3682   -0.3661   -0.2437 c   0  0  0  0  0  0  0  0  0  0  0  0
    0.2606    0.1762    2.2692 o   0  0  0  0  0  0  0  0  0  0  0  0
    0.9966   -1.9250    0.1247 c   0  0  0  0  0  0  0  0  0  0  0  0
   -3.6211   -0.3604   -0.6608 c   0  0  0  0  0  0  0  0  0  0  0  0
    1.9612    0.9909   -0.2415 c   0  0  0  0  0  0  0  0  0  0  0  0
    2.0923    2.0355    0.5676 c   0  0  0  0  0  0  0  0  0  0  0  0
    0.8395    0.1350   -1.7922 h   0  0  0  0  0  0  0  0  0  0  0  0
    1.4578   -2.4751   -1.0896 o   0  0  0  0  0  0  0  0  0  0  0  0
    3.1992    0.3448   -0.8038 c   0  0  0  0  0  0  0  0  0  0  0  0
    0.0742    2.5238   -1.1647 h   0  0  0  0  0  0  0  0  0  0  0  0
   -1.0871    1.3348   -1.7330 h   0  0  0  0  0  0  0  0  0  0  0  0
   -0.7840    2.3369    1.1251 h   0  0  0  0  0  0  0  0  0  0  0  0
   -2.1674    2.4185    0.0435 h   0  0  0  0  0  0  0  0  0  0  0  0
   -2.5193    0.6298    1.6889 h   0  0  0  0  0  0  0  0  0  0  0  0
   -0.9772   -1.2994    1.8000 h   0  0  0  0  0  0  0  0  0  0  0  0
   -1.1509   -1.0847   -1.8907 h   0  0  0  0  0  0  0  0  0  0  0  0
   -1.4442   -2.2605   -0.6216 h   0  0  0  0  0  0  0  0  0  0  0  0
    0.7645    0.8834    1.8386 h   0  0  0  0  0  0  0  0  0  0  0  0
    0.4866   -2.7482    0.6330 h   0  0  0  0  0  0  0  0  0  0  0  0
    1.8329   -1.6136    0.7645 h   0  0  0  0  0  0  0  0  0  0  0  0
   -3.9476   -0.9745   -1.4836 h   0  0  0  0  0  0  0  0  0  0  0  0
   -4.3709    0.2564   -0.1949 h   0  0  0  0  0  0  0  0  0  0  0  0
    3.0676    2.3857    0.8636 h   0  0  0  0  0  0  0  0  0  0  0  0
    1.2696    2.6110    0.9534 h   0  0  0  0  0  0  0  0  0  0  0  0
    1.9130   -1.7800   -1.5831 h   0  0  0  0  0  0  0  0  0  0  0  0
    3.3431   -0.6658   -0.4271 h   0  0  0  0  0  0  0  0  0  0  0  0
    3.1433    0.3011   -1.8917 h   0  0  0  0  0  0  0  0  0  0  0  0
    4.0805    0.9216   -0.5331 h   0  0  0  0  0  0  0  0  0  0  0  0
  1  2  1  0  0  0  0
  2  3  1  0  0  0  0
  3  4  1  0  0  0  0
  4  5  1  0  0  0  0
  1  6  1  0  0  0  0
  5  6  1  0  0  0  0
  1  7  1  0  0  0  0
  5  8  1  0  0  0  0
  7  8  1  0  0  0  0
  6  9  1  0  0  0  0
  1 10  1  0  0  0  0
  8 11  2  0  0  0  0
  2 12  1  0  0  0  0
 12 13  2  0  0  0  0
  2 14  1  0  0  0  0
 10 15  1  0  0  0  0
 12 16  1  0  0  0  0
  3 17  1  0  0  0  0
  3 18  1  0  0  0  0
  4 19  1  0  0  0  0
  4 20  1  0  0  0  0
  5 21  1  0  0  0  0
  6 22  1  0  0  0  0
  7 23  1  0  0  0  0
  7 24  1  0  0  0  0
  9 25  1  0  0  0  0
 10 26  1  0  0  0  0
 10 27  1  0  0  0  0
 11 28  1  0  0  0  0
 11 29  1  0  0  0  0
 13 30  1  0  0  0  0
 13 31  1  0  0  0  0
 15 32  1  0  0  0  0
 16 33  1  0  0  0  0
 16 34  1  0  0  0  0
 16 35  1  0  0  0  0
M  END
