 xtb: 6.7.1 (edcfbbe)
          08092618423D

 35 36  0     0  0            999 V2000
    0.1076   -0.6844   -0.2399 c   0  0  0  0  0  0  0  0  0  0  0  0
    0.6182    0.6316   -0.8951 c   0  0  0  0  0  0  0  0  0  0  0  0
   -0.4860    1.7112   -0.8579 c   0  0  0  0  0  0  0  0  0  0  0  0
   -1.2884    1.7764    0.4426 c   0  0  0  0  0  0  0  0  0  0  0  0
   -1.6965    0.3723    0.8958 c   0  0  0  0  0  0  0  0  0  0  0  0
   -0.4368   -0.4616    1.1868 c   0  0  0  0  0  0  0  0  0  0  0  0
   -1.1811   -1.1293   -0.9570 c   0  0  0  0  0  0  0  0  0  0  0  0
   -2.2931   -0.3883   -0.2600 c   0  0  0  0  0  0  0  0  0  0  0  0
    0.4630    0.0388    2.1390 o   0  0  0  0  0  0  0  0  0  0  0  0
    1.1814   -1.7847   -0.2762 c   0  0  0  0  0  0  0  0  0  0  0  0
   -3.5683   -0.3980   -0.6034 c   0  0  0  0  0  0  0  0  0  0  0  0
    1.9642    1.1542   -0.4222 c   0  0  0  0  0  0  0  0  0  0  0  0
    2.1328    2.0872    0.5071 c   0  0  0  0  0  0  0  0  0  0  0  0
    0.7723    0.3794   -1.9520 h   0  0  0  0  0  0  0  0  0  0  0  0
    0.7152   -3.0437    0.1636 o   0  0  0  0  0  0  0  0  0  0  0  0
    3.1537    0.6756   -1.2072 c   0  0  0  0  0  0  0  0  0  0  0  0
   -0.0359    2.6844   -1.0630 h   0  0  0  0  0  0  0  0  0  0  0  0
   -1.1898    1.5038   -1.6659 h   0  0  0  0  0  0  0  0  0  0  0  0
   -0.7275    2.2555    1.2466 h   0  0  0  0  0  0  0  0  0  0  0  0
   -2.1856    2.3752    0.2717 h   0  0  0  0  0  0  0  0  0  0  0  0
   -2.3636    0.4333    1.7581 h   0  0  0  0  0  0  0  0  0  0  0  0
   -0.7645   -1.4248    1.6016 h   0  0  0  0  0  0  0  0  0  0  0  0
   -1.1571   -0.9303   -2.0283 h   0  0  0  0  0  0  0  0  0  0  0  0
   -1.3096   -2.2074   -0.8263 h   0  0  0  0  0  0  0  0  0  0  0  0
    0.9310    0.7910    1.7470 h   0  0  0  0  0  0  0  0  0  0  0  0
    2.0405   -1.4755    0.3318 h   0  0  0  0  0  0  0  0  0  0  0  0
    1.5027   -1.9530   -1.3071 h   0  0  0  0  0  0  0  0  0  0  0  0
   -3.9217   -0.9561   -1.4544 h   0  0  0  0  0  0  0  0  0  0  0  0
   -4.3097    0.1499   -0.0467 h   0  0  0  0  0  0  0  0  0  0  0  0
    3.1181    2.4467    0.7553 h   0  0  0  0  0  0  0  0  0  0  0  0
    1.3296    2.5687    1.0370 h   0  0  0  0  0  0  0  0  0  0  0  0
    0.5326   -2.9880    1.1097 h   0  0  0  0  0  0  0  0  0  0  0  0
    4.0811    0.9822   -0.7299 h   0  0  0  0  0  0  0  0  0  0  0  0
    3.1618   -0.4028   -1.3302 h   0  0  0  0  0  0  0  0  0  0  0  0
    3.1207    1.1197   -2.2033 h   0  0  0  0  0  0  0  0  0  0  0  0
  1  2  1  0  0  0  0
  2  3  1  0  0  0  0
  3  4  1  0  0  0  0
  4  5  1  0  0  0  0
  1  6  1  0  0  0  0
  5  6  1  0  0  0  0
  1  7  1  0  0  0  0
  5  8  1  0  0  0  0
  7  8  1  0  0  0  0
  6  9  1  0  0  0  0
  1 10  1  0  0  0  0
  8 11  2  0  0  0  0
  2 12  1  0  0  0  0
 12 13  2  0  0  0  0
  2 14  1  0  0  0  0
 10 15  1  0  0  0  0
 12 16  1  0  0  0  0
  3 17  1  0  0  0  0
  3 18  1  0  0  0  0
  4 19  1  0  0  0  0
  4 20  1  0  0  0  0
  5 21  1  0  0  0  0
  6 22  1  0  0  0  0
  7 23  1  0  0  0  0
  7 24  1  0  0  0  0
  9 25  1  0  0  0  0
 10 26  1  0  0  0  0
 10 27  1  0  0  0  0
 11 28  1  0  0  0  0
 11 29  1  0  0  0  0
 13 30  1  0  0  0  0
 13 31  1  0  0  0  0
 15 32  1  0  0  0  0
 16 33  1  0  0  0  0
 16 34  1  0  0  0  0
 16 35  1  0  0  0  0
M  END
