 xtb: 6.7.1 (edcfbbe)
          08092615283D

 35 36  0     0  0            999 V2000
    0.0933   -0.6607    0.0915 c   0  0  0  0  0  0  0  0  0  0  0  0
   -0.9486    0.3054    0.7213 c   0  0  0  0  0  0  0  0  0  0  0  0
   -0.3383    1.7056    0.9065 c   0  0  0  0  0  0  0  0  0  0  0  0
    0.4839    2.2008   -0.2847 c   0  0  0  0  0  0  0  0  0  0  0  0
    1.4258    1.0967   -0.7732 c   0  0  0  0  0  0  0  0  0  0  0  0
    0.5888   -0.0910   -1.2536 c   0  0  0  0  0  0  0  0  0  0  0  0
    1.3896   -0.6465    0.9284 c   0  0  0  0  0  0  0  0  0  0  0  0
    2.1779    0.5218    0.3971 c   0  0  0  0  0  0  0  0  0  0  0  0
    1.4319   -0.9694   -1.9694 o   0  0  0  0  0  0  0  0  0  0  0  0
   -0.4653   -2.0846   -0.0320 c   0  0  0  0  0  0  0  0  0  0  0  0
    3.3224    0.9693    0.8777 c   0  0  0  0  0  0  0  0  0  0  0  0
   -2.3000    0.3041    0.0275 c   0  0  0  0  0  0  0  0  0  0  0  0
   -3.2153   -0.5841    0.3906 c   0  0  0  0  0  0  0  0  0  0  0  0
   -1.1448   -0.0950    1.7236 h   0  0  0  0  0  0  0  0  0  0  0  0
   -0.8632   -2.6362    1.1997 o   0  0  0  0  0  0  0  0  0  0  0  0
   -2.6314    1.3320   -1.0155 c   0  0  0  0  0  0  0  0  0  0  0  0
   -1.1323    2.4179    1.1371 h   0  0  0  0  0  0  0  0  0  0  0  0
    0.3214    1.6774    1.7760 h   0  0  0  0  0  0  0  0  0  0  0  0
   -0.1588    2.5141   -1.1073 h   0  0  0  0  0  0  0  0  0  0  0  0
    1.0722    3.0663    0.0269 h   0  0  0  0  0  0  0  0  0  0  0  0
    2.0887    1.4634   -1.5576 h   0  0  0  0  0  0  0  0  0  0  0  0
   -0.2408    0.2199   -1.8976 h   0  0  0  0  0  0  0  0  0  0  0  0
    1.9558   -1.5652    0.7499 h   0  0  0  0  0  0  0  0  0  0  0  0
    1.2042   -0.5619    2.0005 h   0  0  0  0  0  0  0  0  0  0  0  0
    0.9016   -1.6732   -2.3550 h   0  0  0  0  0  0  0  0  0  0  0  0
    0.2956   -2.7293   -0.4982 h   0  0  0  0  0  0  0  0  0  0  0  0
   -1.3612   -2.0894   -0.6581 h   0  0  0  0  0  0  0  0  0  0  0  0
    3.7970    0.5161    1.7319 h   0  0  0  0  0  0  0  0  0  0  0  0
    3.8348    1.8044    0.4320 h   0  0  0  0  0  0  0  0  0  0  0  0
   -4.1884   -0.6168   -0.0714 h   0  0  0  0  0  0  0  0  0  0  0  0
   -3.0246   -1.3255    1.1471 h   0  0  0  0  0  0  0  0  0  0  0  0
   -0.1014   -2.6393    1.7901 h   0  0  0  0  0  0  0  0  0  0  0  0
   -1.9974    1.2394   -1.8951 h   0  0  0  0  0  0  0  0  0  0  0  0
   -3.6647    1.2121   -1.3332 h   0  0  0  0  0  0  0  0  0  0  0  0
   -2.5131    2.3399   -0.6226 h   0  0  0  0  0  0  0  0  0  0  0  0
  1  2  1  0  0  0  0
  2  3  1  0  0  0  0
  3  4  1  0  0  0  0
  4  5  1  0  0  0  0
  1  6  1  0  0  0  0
  5  6  1  0  0  0  0
  1  7  1  0  0  0  0
  5  8  1  0  0  0  0
  7  8  1  0  0  0  0
  6  9  1  0  0  0  0
  1 10  1  0  0  0  0
  8 11  2  0  0  0  0
  2 12  1  0  0  0  0
 12 13  2  0  0  0  0
  2 14  1  0  0  0  0
 10 15  1  0  0  0  0
 12 16  1  0  0  0  0
  3 17  1  0  0  0  0
  3 18  1  0  0  0  0
  4 19  1  0  0  0  0
  4 20  1  0  0  0  0
  5 21  1  0  0  0  0
  6 22  1  0  0  0  0
  7 23  1  0  0  0  0
  7 24  1  0  0  0  0
  9 25  1  0  0  0  0
 10 26  1  0  0  0  0
 10 27  1  0  0  0  0
 11 28  1  0  0  0  0
 11 29  1  0  0  0  0
 13 30  1  0  0  0  0
 13 31  1  0  0  0  0
 15 32  1  0  0  0  0
 16 33  1  0  0  0  0
 16 34  1  0  0  0  0
 16 35  1  0  0  0  0
M  END
