 xtb: 6.7.1 (edcfbbe)
          08092622183D

 50 55  0     0  0            999 V2000
   -0.4165    0.0886   -2.5191 c   0  0  0  0  0  0  0  0  0  0  0  0
    1.1058    0.0803   -2.6149 c   0  0  0  0  0  0  0  0  0  0  0  0
   -2.6028    3.1622    0.6630 c   0  0  0  0  0  0  0  0  0  0  0  0
   -3.7499    2.5640    0.1662 c   0  0  0  0  0  0  0  0  0  0  0  0
   -3.6676    1.3156   -0.4110 c   0  0  0  0  0  0  0  0  0  0  0  0
   -2.4495    0.6370   -0.4759 c   0  0  0  0  0  0  0  0  0  0  0  0
   -1.3088    1.1792    0.1366 c   0  0  0  0  0  0  0  0  0  0  0  0
   -1.4099    2.4630    0.6633 c   0  0  0  0  0  0  0  0  0  0  0  0
   -2.3585   -0.5027   -1.2548 n   0  0  0  0  0  0  0  0  0  0  0  0
   -1.0232   -0.9467   -1.5496 c   0  0  0  0  0  0  0  0  0  0  0  0
   -0.1667   -1.0762   -0.2583 c   0  0  0  0  0  0  0  0  0  0  0  0
   -0.0683    0.3335    0.3885 c   0  0  0  0  0  0  0  0  0  0  0  0
    1.2520   -1.4624   -0.6950 c   0  0  0  0  0  0  0  0  0  0  0  0
    1.7680   -0.1232   -1.2455 c   0  0  0  0  0  0  0  0  0  0  0  0
    1.2646    0.8463   -0.1838 c   0  0  0  0  0  0  0  0  0  0  0  0
    3.2529    0.0639   -1.3911 c   0  0  0  0  0  0  0  0  0  0  0  0
    3.9584    0.9189   -0.6636 c   0  0  0  0  0  0  0  0  0  0  0  0
    3.3942    1.6411    0.5320 c   0  0  0  0  0  0  0  0  0  0  0  0
    2.2427    0.8319    0.9732 n   0  0  0  0  0  0  0  0  0  0  0  0
    1.3952    1.3021    2.0832 c   0  0  0  0  0  0  0  0  0  0  0  0
    0.1993    0.3599    1.9211 c   0  0  0  0  0  0  0  0  0  0  0  0
    2.7275   -0.3757    1.3430 o   0  0  0  0  0  0  0  0  0  0  0  0
    1.2021    1.8749   -0.5398 h   0  0  0  0  0  0  0  0  0  0  0  0
   -0.8413   -2.0871    0.6307 c   0  0  0  0  0  0  0  0  0  0  0  0
   -1.8332   -1.8667    1.2953 o   0  0  0  0  0  0  0  0  0  0  0  0
   -0.2686   -3.2852    0.5616 o   0  0  0  0  0  0  0  0  0  0  0  0
   -0.8495   -4.3283    1.3436 c   0  0  0  0  0  0  0  0  0  0  0  0
   -0.8485   -0.0830   -3.5062 h   0  0  0  0  0  0  0  0  0  0  0  0
   -0.7445    1.0751   -2.1925 h   0  0  0  0  0  0  0  0  0  0  0  0
    1.4401   -0.7313   -3.2637 h   0  0  0  0  0  0  0  0  0  0  0  0
    1.4387    1.0204   -3.0600 h   0  0  0  0  0  0  0  0  0  0  0  0
   -2.6413    4.1597    1.0744 h   0  0  0  0  0  0  0  0  0  0  0  0
   -4.6973    3.0805    0.2081 h   0  0  0  0  0  0  0  0  0  0  0  0
   -4.5416    0.8475   -0.8391 h   0  0  0  0  0  0  0  0  0  0  0  0
   -0.5441    2.9356    1.0982 h   0  0  0  0  0  0  0  0  0  0  0  0
   -3.0718   -1.2004   -1.1149 h   0  0  0  0  0  0  0  0  0  0  0  0
   -1.0736   -1.9280   -2.0307 h   0  0  0  0  0  0  0  0  0  0  0  0
    1.8543   -1.7674    0.1598 h   0  0  0  0  0  0  0  0  0  0  0  0
    1.2470   -2.2553   -1.4400 h   0  0  0  0  0  0  0  0  0  0  0  0
    3.7246   -0.4942   -2.1862 h   0  0  0  0  0  0  0  0  0  0  0  0
    5.0131    1.0618   -0.8435 h   0  0  0  0  0  0  0  0  0  0  0  0
    3.0952    2.6688    0.3070 h   0  0  0  0  0  0  0  0  0  0  0  0
    4.1287    1.6399    1.3401 h   0  0  0  0  0  0  0  0  0  0  0  0
    1.9259    1.1438    3.0209 h   0  0  0  0  0  0  0  0  0  0  0  0
    1.1399    2.3533    1.9599 h   0  0  0  0  0  0  0  0  0  0  0  0
   -0.6734    0.6777    2.4862 h   0  0  0  0  0  0  0  0  0  0  0  0
    0.5074   -0.6274    2.2665 h   0  0  0  0  0  0  0  0  0  0  0  0
   -1.8779   -4.5090    1.0251 h   0  0  0  0  0  0  0  0  0  0  0  0
   -0.2302   -5.2044    1.1742 h   0  0  0  0  0  0  0  0  0  0  0  0
   -0.8498   -4.0513    2.3990 h   0  0  0  0  0  0  0  0  0  0  0  0
  1  2  1  0  0  0  0
  3  4  4  0  0  0  0
  4  5  4  0  0  0  0
  5  6  4  0  0  0  0
  6  7  4  0  0  0  0
  3  8  4  0  0  0  0
  7  8  4  0  0  0  0
  6  9  1  0  0  0  0
  1 10  1  0  0  0  0
  9 10  1  0  0  0  0
 10 11  1  0  0  0  0
  7 12  1  0  0  0  0
 11 12  1  0  0  0  0
 11 13  1  0  0  0  0
  2 14  1  0  0  0  0
 13 14  1  0  0  0  0
 12 15  1  0  0  0  0
 14 15  1  0  0  0  0
 14 16  1  0  0  0  0
 16 17  2  0  0  0  0
 17 18  1  0  0  0  0
 15 19  1  0  0  0  0
 18 19  1  0  0  0  0
 19 20  1  0  0  0  0
 12 21  1  0  0  0  0
 20 21  1  0  0  0  0
 19 22  1  0  0  0  0
 15 23  1  0  0  0  0
 11 24  1  0  0  0  0
 24 25  2  0  0  0  0
 24 26  1  0  0  0  0
 26 27  1  0  0  0  0
  1 28  1  0  0  0  0
  1 29  1  0  0  0  0
  2 30  1  0  0  0  0
  2 31  1  0  0  0  0
  3 32  1  0  0  0  0
  4 33  1  0  0  0  0
  5 34  1  0  0  0  0
  8 35  1  0  0  0  0
  9 36  1  0  0  0  0
 10 37  1  0  0  0  0
 13 38  1  0  0  0  0
 13 39  1  0  0  0  0
 16 40  1  0  0  0  0
 17 41  1  0  0  0  0
 18 42  1  0  0  0  0
 18 43  1  0  0  0  0
 20 44  1  0  0  0  0
 20 45  1  0  0  0  0
 21 46  1  0  0  0  0
 21 47  1  0  0  0  0
 27 48  1  0  0  0  0
 27 49  1  0  0  0  0
 27 50  1  0  0  0  0
M  END
