 xtb: 6.7.1 (edcfbbe)
          08092617053D

 35 36  0     0  0            999 V2000
    0.1367   -0.5698    0.4135 c   0  0  0  0  0  0  0  0  0  0  0  0
   -0.9321    0.5079    0.7323 c   0  0  0  0  0  0  0  0  0  0  0  0
   -0.3391    1.9239    0.5608 c   0  0  0  0  0  0  0  0  0  0  0  0
    0.5823    2.1106   -0.6466 c   0  0  0  0  0  0  0  0  0  0  0  0
    1.5279    0.9150   -0.8017 c   0  0  0  0  0  0  0  0  0  0  0  0
    0.6781   -0.3408   -1.0077 c   0  0  0  0  0  0  0  0  0  0  0  0
    1.3863   -0.3283    1.2851 c   0  0  0  0  0  0  0  0  0  0  0  0
    2.2242    0.6490    0.5069 c   0  0  0  0  0  0  0  0  0  0  0  0
    1.4345   -1.4720   -1.4184 o   0  0  0  0  0  0  0  0  0  0  0  0
   -0.3864   -2.0002    0.6159 c   0  0  0  0  0  0  0  0  0  0  0  0
    3.3717    1.1771    0.8918 c   0  0  0  0  0  0  0  0  0  0  0  0
   -2.2532    0.3242    0.0097 c   0  0  0  0  0  0  0  0  0  0  0  0
   -2.5166    0.7666   -1.2110 c   0  0  0  0  0  0  0  0  0  0  0  0
   -1.1577    0.3910    1.7988 h   0  0  0  0  0  0  0  0  0  0  0  0
   -1.3058   -2.4247   -0.3661 o   0  0  0  0  0  0  0  0  0  0  0  0
   -3.3285   -0.3518    0.8106 c   0  0  0  0  0  0  0  0  0  0  0  0
   -1.1593    2.6419    0.5045 h   0  0  0  0  0  0  0  0  0  0  0  0
    0.2385    2.1579    1.4570 h   0  0  0  0  0  0  0  0  0  0  0  0
    0.0086    2.2317   -1.5661 h   0  0  0  0  0  0  0  0  0  0  0  0
    1.1694    3.0202   -0.5041 h   0  0  0  0  0  0  0  0  0  0  0  0
    2.2276    1.0899   -1.6240 h   0  0  0  0  0  0  0  0  0  0  0  0
   -0.1306   -0.1737   -1.7299 h   0  0  0  0  0  0  0  0  0  0  0  0
    1.9401   -1.2621    1.4057 h   0  0  0  0  0  0  0  0  0  0  0  0
    1.1349    0.0377    2.2801 h   0  0  0  0  0  0  0  0  0  0  0  0
    1.9969   -1.2088   -2.1569 h   0  0  0  0  0  0  0  0  0  0  0  0
   -0.9067   -2.0746    1.5738 h   0  0  0  0  0  0  0  0  0  0  0  0
    0.4696   -2.6869    0.6317 h   0  0  0  0  0  0  0  0  0  0  0  0
    3.8063    0.9510    1.8510 h   0  0  0  0  0  0  0  0  0  0  0  0
    3.9219    1.8585    0.2646 h   0  0  0  0  0  0  0  0  0  0  0  0
   -3.4887    0.6219   -1.6536 h   0  0  0  0  0  0  0  0  0  0  0  0
   -1.8053    1.2853   -1.8270 h   0  0  0  0  0  0  0  0  0  0  0  0
   -0.8320   -2.4513   -1.2064 h   0  0  0  0  0  0  0  0  0  0  0  0
   -4.2813   -0.3107    0.2892 h   0  0  0  0  0  0  0  0  0  0  0  0
   -3.0752   -1.3973    0.9708 h   0  0  0  0  0  0  0  0  0  0  0  0
   -3.4392    0.1276    1.7826 h   0  0  0  0  0  0  0  0  0  0  0  0
  1  2  1  0  0  0  0
  2  3  1  0  0  0  0
  3  4  1  0  0  0  0
  4  5  1  0  0  0  0
  1  6  1  0  0  0  0
  5  6  1  0  0  0  0
  1  7  1  0  0  0  0
  5  8  1  0  0  0  0
  7  8  1  0  0  0  0
  6  9  1  0  0  0  0
  1 10  1  0  0  0  0
  8 11  2  0  0  0  0
  2 12  1  0  0  0  0
 12 13  2  0  0  0  0
  2 14  1  0  0  0  0
 10 15  1  0  0  0  0
 12 16  1  0  0  0  0
  3 17  1  0  0  0  0
  3 18  1  0  0  0  0
  4 19  1  0  0  0  0
  4 20  1  0  0  0  0
  5 21  1  0  0  0  0
  6 22  1  0  0  0  0
  7 23  1  0  0  0  0
  7 24  1  0  0  0  0
  9 25  1  0  0  0  0
 10 26  1  0  0  0  0
 10 27  1  0  0  0  0
 11 28  1  0  0  0  0
 11 29  1  0  0  0  0
 13 30  1  0  0  0  0
 13 31  1  0  0  0  0
 15 32  1  0  0  0  0
 16 33  1  0  0  0  0
 16 34  1  0  0  0  0
 16 35  1  0  0  0  0
M  END
