 xtb: 6.7.1 (edcfbbe)
          08092615283D

 35 36  0     0  0            999 V2000
    0.1463   -0.5998    0.3675 c   0  0  0  0  0  0  0  0  0  0  0  0
   -0.9094    0.4832    0.7196 c   0  0  0  0  0  0  0  0  0  0  0  0
   -0.3324    1.9044    0.5422 c   0  0  0  0  0  0  0  0  0  0  0  0
    0.5613    2.0891   -0.6834 c   0  0  0  0  0  0  0  0  0  0  0  0
    1.5337    0.9138   -0.8154 c   0  0  0  0  0  0  0  0  0  0  0  0
    0.7273   -0.3706   -1.0372 c   0  0  0  0  0  0  0  0  0  0  0  0
    1.3930   -0.3784    1.2481 c   0  0  0  0  0  0  0  0  0  0  0  0
    2.2061    0.6510    0.5087 c   0  0  0  0  0  0  0  0  0  0  0  0
    1.5587   -1.4680   -1.3762 o   0  0  0  0  0  0  0  0  0  0  0  0
   -0.4094   -2.0203    0.5429 c   0  0  0  0  0  0  0  0  0  0  0  0
    3.3188    1.2205    0.9347 c   0  0  0  0  0  0  0  0  0  0  0  0
   -2.2595    0.3217    0.0470 c   0  0  0  0  0  0  0  0  0  0  0  0
   -2.5317    0.6433   -1.2111 c   0  0  0  0  0  0  0  0  0  0  0  0
   -1.0991    0.3590    1.7925 h   0  0  0  0  0  0  0  0  0  0  0  0
   -1.3370   -2.4174   -0.4413 o   0  0  0  0  0  0  0  0  0  0  0  0
   -3.3549   -0.1586    0.9609 c   0  0  0  0  0  0  0  0  0  0  0  0
   -1.1584    2.6173    0.5025 h   0  0  0  0  0  0  0  0  0  0  0  0
    0.2630    2.1413    1.4257 h   0  0  0  0  0  0  0  0  0  0  0  0
   -0.0311    2.1700   -1.5956 h   0  0  0  0  0  0  0  0  0  0  0  0
    1.1245    3.0179   -0.5725 h   0  0  0  0  0  0  0  0  0  0  0  0
    2.2510    1.1001   -1.6191 h   0  0  0  0  0  0  0  0  0  0  0  0
   -0.0526   -0.2606   -1.7987 h   0  0  0  0  0  0  0  0  0  0  0  0
    1.9630   -1.3074    1.3133 h   0  0  0  0  0  0  0  0  0  0  0  0
    1.1437   -0.0653    2.2616 h   0  0  0  0  0  0  0  0  0  0  0  0
    1.9756   -1.2798   -2.2254 h   0  0  0  0  0  0  0  0  0  0  0  0
   -0.8536   -2.1134    1.5460 h   0  0  0  0  0  0  0  0  0  0  0  0
    0.4104   -2.7374    0.4600 h   0  0  0  0  0  0  0  0  0  0  0  0
    3.7389    0.9924    1.8999 h   0  0  0  0  0  0  0  0  0  0  0  0
    3.8551    1.9371    0.3355 h   0  0  0  0  0  0  0  0  0  0  0  0
   -3.5259    0.5272   -1.6119 h   0  0  0  0  0  0  0  0  0  0  0  0
   -1.8016    1.0348   -1.8946 h   0  0  0  0  0  0  0  0  0  0  0  0
   -2.0053   -1.7206   -0.5284 h   0  0  0  0  0  0  0  0  0  0  0  0
   -4.2785   -0.3302    0.4131 h   0  0  0  0  0  0  0  0  0  0  0  0
   -3.0734   -1.0785    1.4710 h   0  0  0  0  0  0  0  0  0  0  0  0
   -3.5443    0.5948    1.7264 h   0  0  0  0  0  0  0  0  0  0  0  0
  1  2  1  0  0  0  0
  2  3  1  0  0  0  0
  3  4  1  0  0  0  0
  4  5  1  0  0  0  0
  1  6  1  0  0  0  0
  5  6  1  0  0  0  0
  1  7  1  0  0  0  0
  5  8  1  0  0  0  0
  7  8  1  0  0  0  0
  6  9  1  0  0  0  0
  1 10  1  0  0  0  0
  8 11  2  0  0  0  0
  2 12  1  0  0  0  0
 12 13  2  0  0  0  0
  2 14  1  0  0  0  0
 10 15  1  0  0  0  0
 12 16  1  0  0  0  0
  3 17  1  0  0  0  0
  3 18  1  0  0  0  0
  4 19  1  0  0  0  0
  4 20  1  0  0  0  0
  5 21  1  0  0  0  0
  6 22  1  0  0  0  0
  7 23  1  0  0  0  0
  7 24  1  0  0  0  0
  9 25  1  0  0  0  0
 10 26  1  0  0  0  0
 10 27  1  0  0  0  0
 11 28  1  0  0  0  0
 11 29  1  0  0  0  0
 13 30  1  0  0  0  0
 13 31  1  0  0  0  0
 15 32  1  0  0  0  0
 16 33  1  0  0  0  0
 16 34  1  0  0  0  0
 16 35  1  0  0  0  0
M  END
