 xtb: 6.7.1 (edcfbbe)
          08092617483D

 35 36  0     0  0            999 V2000
    0.0983   -0.7005   -0.2990 c   0  0  0  0  0  0  0  0  0  0  0  0
    0.5932    0.6213   -0.9531 c   0  0  0  0  0  0  0  0  0  0  0  0
   -0.4950    1.7069   -0.8546 c   0  0  0  0  0  0  0  0  0  0  0  0
   -1.2169    1.7512    0.4906 c   0  0  0  0  0  0  0  0  0  0  0  0
   -1.6619    0.3441    0.9029 c   0  0  0  0  0  0  0  0  0  0  0  0
   -0.4220   -0.5195    1.1452 c   0  0  0  0  0  0  0  0  0  0  0  0
   -1.2123   -1.1197   -0.9960 c   0  0  0  0  0  0  0  0  0  0  0  0
   -2.2952   -0.3625   -0.2658 c   0  0  0  0  0  0  0  0  0  0  0  0
    0.4614    0.0283    2.0851 o   0  0  0  0  0  0  0  0  0  0  0  0
    1.1855   -1.7839   -0.3848 c   0  0  0  0  0  0  0  0  0  0  0  0
   -3.5717   -0.3247   -0.5995 c   0  0  0  0  0  0  0  0  0  0  0  0
    1.9667    1.1000   -0.5195 c   0  0  0  0  0  0  0  0  0  0  0  0
    3.0405    0.6910   -1.1825 c   0  0  0  0  0  0  0  0  0  0  0  0
    0.7044    0.3796   -2.0191 h   0  0  0  0  0  0  0  0  0  0  0  0
    0.8859   -2.9552    0.3360 o   0  0  0  0  0  0  0  0  0  0  0  0
    2.1056    2.0824    0.6023 c   0  0  0  0  0  0  0  0  0  0  0  0
   -0.0538    2.6799   -1.0753 h   0  0  0  0  0  0  0  0  0  0  0  0
   -1.2414    1.5152   -1.6289 h   0  0  0  0  0  0  0  0  0  0  0  0
   -0.5729    2.1479    1.2729 h   0  0  0  0  0  0  0  0  0  0  0  0
   -2.0914    2.3991    0.4029 h   0  0  0  0  0  0  0  0  0  0  0  0
   -2.3118    0.3955    1.7776 h   0  0  0  0  0  0  0  0  0  0  0  0
   -0.7504   -1.5099    1.5035 h   0  0  0  0  0  0  0  0  0  0  0  0
   -1.2058   -0.9059   -2.0656 h   0  0  0  0  0  0  0  0  0  0  0  0
   -1.3869   -2.1945   -0.8808 h   0  0  0  0  0  0  0  0  0  0  0  0
    1.1793   -0.6014    2.2110 h   0  0  0  0  0  0  0  0  0  0  0  0
    2.1133   -1.4085    0.0535 h   0  0  0  0  0  0  0  0  0  0  0  0
    1.3805   -2.0196   -1.4408 h   0  0  0  0  0  0  0  0  0  0  0  0
   -3.9498   -0.8450   -1.4639 h   0  0  0  0  0  0  0  0  0  0  0  0
   -4.2902    0.2305   -0.0217 h   0  0  0  0  0  0  0  0  0  0  0  0
    4.0310    1.0181   -0.9141 h   0  0  0  0  0  0  0  0  0  0  0  0
    2.9821    0.0117   -2.0167 h   0  0  0  0  0  0  0  0  0  0  0  0
    0.1144   -3.3793   -0.0559 h   0  0  0  0  0  0  0  0  0  0  0  0
    1.6149    1.7156    1.4986 h   0  0  0  0  0  0  0  0  0  0  0  0
    3.1569    2.2563    0.8189 h   0  0  0  0  0  0  0  0  0  0  0  0
    1.6533    3.0359    0.3337 h   0  0  0  0  0  0  0  0  0  0  0  0
  1  2  1  0  0  0  0
  2  3  1  0  0  0  0
  3  4  1  0  0  0  0
  4  5  1  0  0  0  0
  1  6  1  0  0  0  0
  5  6  1  0  0  0  0
  1  7  1  0  0  0  0
  5  8  1  0  0  0  0
  7  8  1  0  0  0  0
  6  9  1  0  0  0  0
  1 10  1  0  0  0  0
  8 11  2  0  0  0  0
  2 12  1  0  0  0  0
 12 13  2  0  0  0  0
  2 14  1  0  0  0  0
 10 15  1  0  0  0  0
 12 16  1  0  0  0  0
  3 17  1  0  0  0  0
  3 18  1  0  0  0  0
  4 19  1  0  0  0  0
  4 20  1  0  0  0  0
  5 21  1  0  0  0  0
  6 22  1  0  0  0  0
  7 23  1  0  0  0  0
  7 24  1  0  0  0  0
  9 25  1  0  0  0  0
 10 26  1  0  0  0  0
 10 27  1  0  0  0  0
 11 28  1  0  0  0  0
 11 29  1  0  0  0  0
 13 30  1  0  0  0  0
 13 31  1  0  0  0  0
 15 32  1  0  0  0  0
 16 33  1  0  0  0  0
 16 34  1  0  0  0  0
 16 35  1  0  0  0  0
M  END
