 xtb: 6.7.1 (edcfbbe)
          08092618423D

 35 36  0     0  0            999 V2000
   -0.0715   -0.7866   -0.3499 c   0  0  0  0  0  0  0  0  0  0  0  0
    0.5200    0.5237   -0.9469 c   0  0  0  0  0  0  0  0  0  0  0  0
   -0.4752    1.6887   -0.7816 c   0  0  0  0  0  0  0  0  0  0  0  0
   -1.1946    1.7177    0.5657 c   0  0  0  0  0  0  0  0  0  0  0  0
   -1.7526    0.3302    0.9027 c   0  0  0  0  0  0  0  0  0  0  0  0
   -0.5855   -0.6400    1.0988 c   0  0  0  0  0  0  0  0  0  0  0  0
   -1.4073   -1.0733   -1.0657 c   0  0  0  0  0  0  0  0  0  0  0  0
   -2.4318   -0.2681   -0.3017 c   0  0  0  0  0  0  0  0  0  0  0  0
    0.3422   -0.2249    2.0700 o   0  0  0  0  0  0  0  0  0  0  0  0
    0.9030   -1.9687   -0.4638 c   0  0  0  0  0  0  0  0  0  0  0  0
   -3.7008   -0.1150   -0.6334 c   0  0  0  0  0  0  0  0  0  0  0  0
    1.9336    0.8749   -0.5195 c   0  0  0  0  0  0  0  0  0  0  0  0
    2.9630    0.4399   -1.2419 c   0  0  0  0  0  0  0  0  0  0  0  0
    0.5950    0.3239   -2.0243 h   0  0  0  0  0  0  0  0  0  0  0  0
    1.9548   -1.9231    0.4817 o   0  0  0  0  0  0  0  0  0  0  0  0
    2.1679    1.7630    0.6635 c   0  0  0  0  0  0  0  0  0  0  0  0
    0.0436    2.6337   -0.9484 h   0  0  0  0  0  0  0  0  0  0  0  0
   -1.2336    1.6001   -1.5622 h   0  0  0  0  0  0  0  0  0  0  0  0
   -0.5244    2.0199    1.3691 h   0  0  0  0  0  0  0  0  0  0  0  0
   -2.0139    2.4373    0.5148 h   0  0  0  0  0  0  0  0  0  0  0  0
   -2.3995    0.3858    1.7795 h   0  0  0  0  0  0  0  0  0  0  0  0
   -0.9896   -1.6218    1.4034 h   0  0  0  0  0  0  0  0  0  0  0  0
   -1.3834   -0.8138   -2.1238 h   0  0  0  0  0  0  0  0  0  0  0  0
   -1.6517   -2.1362   -0.9944 h   0  0  0  0  0  0  0  0  0  0  0  0
    1.0770   -0.8580    2.0249 h   0  0  0  0  0  0  0  0  0  0  0  0
    1.3068   -2.0322   -1.4818 h   0  0  0  0  0  0  0  0  0  0  0  0
    0.3709   -2.9000   -0.2478 h   0  0  0  0  0  0  0  0  0  0  0  0
   -4.1133   -0.5632   -1.5220 h   0  0  0  0  0  0  0  0  0  0  0  0
   -4.3772    0.4650   -0.0291 h   0  0  0  0  0  0  0  0  0  0  0  0
    3.9809    0.6796   -0.9801 h   0  0  0  0  0  0  0  0  0  0  0  0
    2.8382   -0.1613   -2.1282 h   0  0  0  0  0  0  0  0  0  0  0  0
    2.5307   -1.1774    0.2392 h   0  0  0  0  0  0  0  0  0  0  0  0
    1.6391    1.3962    1.5382 h   0  0  0  0  0  0  0  0  0  0  0  0
    3.2305    1.8219    0.8885 h   0  0  0  0  0  0  0  0  0  0  0  0
    1.8105    2.7700    0.4534 h   0  0  0  0  0  0  0  0  0  0  0  0
  1  2  1  0  0  0  0
  2  3  1  0  0  0  0
  3  4  1  0  0  0  0
  4  5  1  0  0  0  0
  1  6  1  0  0  0  0
  5  6  1  0  0  0  0
  1  7  1  0  0  0  0
  5  8  1  0  0  0  0
  7  8  1  0  0  0  0
  6  9  1  0  0  0  0
  1 10  1  0  0  0  0
  8 11  2  0  0  0  0
  2 12  1  0  0  0  0
 12 13  2  0  0  0  0
  2 14  1  0  0  0  0
 10 15  1  0  0  0  0
 12 16  1  0  0  0  0
  3 17  1  0  0  0  0
  3 18  1  0  0  0  0
  4 19  1  0  0  0  0
  4 20  1  0  0  0  0
  5 21  1  0  0  0  0
  6 22  1  0  0  0  0
  7 23  1  0  0  0  0
  7 24  1  0  0  0  0
  9 25  1  0  0  0  0
 10 26  1  0  0  0  0
 10 27  1  0  0  0  0
 11 28  1  0  0  0  0
 11 29  1  0  0  0  0
 13 30  1  0  0  0  0
 13 31  1  0  0  0  0
 15 32  1  0  0  0  0
 16 33  1  0  0  0  0
 16 34  1  0  0  0  0
 16 35  1  0  0  0  0
M  END
