 xtb: 6.7.1 (edcfbbe)
          08092615283D

 35 36  0     0  0            999 V2000
    0.1319   -0.5785    0.4112 c   0  0  0  0  0  0  0  0  0  0  0  0
   -0.9198    0.5180    0.7286 c   0  0  0  0  0  0  0  0  0  0  0  0
   -0.3251    1.9284    0.5211 c   0  0  0  0  0  0  0  0  0  0  0  0
    0.5913    2.0832   -0.6942 c   0  0  0  0  0  0  0  0  0  0  0  0
    1.5411    0.8870   -0.8085 c   0  0  0  0  0  0  0  0  0  0  0  0
    0.6979   -0.3718   -1.0086 c   0  0  0  0  0  0  0  0  0  0  0  0
    1.3798   -0.3509    1.2862 c   0  0  0  0  0  0  0  0  0  0  0  0
    2.2123    0.6412    0.5174 c   0  0  0  0  0  0  0  0  0  0  0  0
    1.5271   -1.4373   -1.4347 o   0  0  0  0  0  0  0  0  0  0  0  0
   -0.4375   -1.9924    0.6021 c   0  0  0  0  0  0  0  0  0  0  0  0
    3.3346    1.2003    0.9308 c   0  0  0  0  0  0  0  0  0  0  0  0
   -2.2571    0.3328    0.0365 c   0  0  0  0  0  0  0  0  0  0  0  0
   -2.5179    0.6602   -1.2224 c   0  0  0  0  0  0  0  0  0  0  0  0
   -1.1271    0.4253    1.8017 h   0  0  0  0  0  0  0  0  0  0  0  0
   -1.2228   -2.4377   -0.4861 o   0  0  0  0  0  0  0  0  0  0  0  0
   -3.3577   -0.1838    0.9239 c   0  0  0  0  0  0  0  0  0  0  0  0
   -1.1434    2.6482    0.4538 h   0  0  0  0  0  0  0  0  0  0  0  0
    0.2588    2.1790    1.4085 h   0  0  0  0  0  0  0  0  0  0  0  0
    0.0154    2.1726   -1.6159 h   0  0  0  0  0  0  0  0  0  0  0  0
    1.1735    2.9995   -0.5801 h   0  0  0  0  0  0  0  0  0  0  0  0
    2.2554    1.0277   -1.6210 h   0  0  0  0  0  0  0  0  0  0  0  0
   -0.0949   -0.2237   -1.7497 h   0  0  0  0  0  0  0  0  0  0  0  0
    1.9402   -1.2831    1.3872 h   0  0  0  0  0  0  0  0  0  0  0  0
    1.1329   -0.0006    2.2884 h   0  0  0  0  0  0  0  0  0  0  0  0
    0.9667   -2.2191   -1.5253 h   0  0  0  0  0  0  0  0  0  0  0  0
   -1.0094   -2.0423    1.5386 h   0  0  0  0  0  0  0  0  0  0  0  0
    0.3797   -2.7153    0.6752 h   0  0  0  0  0  0  0  0  0  0  0  0
    3.7511    0.9876    1.9014 h   0  0  0  0  0  0  0  0  0  0  0  0
    3.8850    1.8893    0.3129 h   0  0  0  0  0  0  0  0  0  0  0  0
   -3.5026    0.5223   -1.6398 h   0  0  0  0  0  0  0  0  0  0  0  0
   -1.7904    1.0851   -1.8886 h   0  0  0  0  0  0  0  0  0  0  0  0
   -1.9424   -1.8028   -0.6197 h   0  0  0  0  0  0  0  0  0  0  0  0
   -3.0727   -1.1072    1.4252 h   0  0  0  0  0  0  0  0  0  0  0  0
   -3.5734    0.5533    1.6981 h   0  0  0  0  0  0  0  0  0  0  0  0
   -4.2689   -0.3608    0.3572 h   0  0  0  0  0  0  0  0  0  0  0  0
  1  2  1  0  0  0  0
  2  3  1  0  0  0  0
  3  4  1  0  0  0  0
  4  5  1  0  0  0  0
  1  6  1  0  0  0  0
  5  6  1  0  0  0  0
  1  7  1  0  0  0  0
  5  8  1  0  0  0  0
  7  8  1  0  0  0  0
  6  9  1  0  0  0  0
  1 10  1  0  0  0  0
  8 11  2  0  0  0  0
  2 12  1  0  0  0  0
 12 13  2  0  0  0  0
  2 14  1  0  0  0  0
 10 15  1  0  0  0  0
 12 16  1  0  0  0  0
  3 17  1  0  0  0  0
  3 18  1  0  0  0  0
  4 19  1  0  0  0  0
  4 20  1  0  0  0  0
  5 21  1  0  0  0  0
  6 22  1  0  0  0  0
  7 23  1  0  0  0  0
  7 24  1  0  0  0  0
  9 25  1  0  0  0  0
 10 26  1  0  0  0  0
 10 27  1  0  0  0  0
 11 28  1  0  0  0  0
 11 29  1  0  0  0  0
 13 30  1  0  0  0  0
 13 31  1  0  0  0  0
 15 32  1  0  0  0  0
 16 33  1  0  0  0  0
 16 34  1  0  0  0  0
 16 35  1  0  0  0  0
M  END
