 xtb: 6.7.1 (edcfbbe)
          08092618423D

 35 36  0     0  0            999 V2000
    0.0295   -0.7775   -0.0333 c   0  0  0  0  0  0  0  0  0  0  0  0
    0.6546    0.4122   -0.8179 c   0  0  0  0  0  0  0  0  0  0  0  0
   -0.3958    1.5198   -1.0141 c   0  0  0  0  0  0  0  0  0  0  0  0
   -1.2412    1.8095    0.2258 c   0  0  0  0  0  0  0  0  0  0  0  0
   -1.7713    0.5054    0.8335 c   0  0  0  0  0  0  0  0  0  0  0  0
   -0.5884   -0.3427    1.3126 c   0  0  0  0  0  0  0  0  0  0  0  0
   -1.2429   -1.2516   -0.7701 c   0  0  0  0  0  0  0  0  0  0  0  0
   -2.3489   -0.3678   -0.2474 c   0  0  0  0  0  0  0  0  0  0  0  0
    0.2388    0.3474    2.2157 o   0  0  0  0  0  0  0  0  0  0  0  0
    1.0221   -1.9326    0.1513 c   0  0  0  0  0  0  0  0  0  0  0  0
   -3.5998   -0.3602   -0.6698 c   0  0  0  0  0  0  0  0  0  0  0  0
    1.9910    0.9087   -0.2894 c   0  0  0  0  0  0  0  0  0  0  0  0
    3.1048    0.2836   -0.6501 c   0  0  0  0  0  0  0  0  0  0  0  0
    0.8825    0.0035   -1.8110 h   0  0  0  0  0  0  0  0  0  0  0  0
    1.4714   -2.4926   -1.0640 o   0  0  0  0  0  0  0  0  0  0  0  0
    2.0642    2.1349    0.5708 c   0  0  0  0  0  0  0  0  0  0  0  0
    0.0981    2.4323   -1.3492 h   0  0  0  0  0  0  0  0  0  0  0  0
   -1.0713    1.2145   -1.8163 h   0  0  0  0  0  0  0  0  0  0  0  0
   -0.6632    2.3309    0.9865 h   0  0  0  0  0  0  0  0  0  0  0  0
   -2.0835    2.4436   -0.0578 h   0  0  0  0  0  0  0  0  0  0  0  0
   -2.4772    0.7237    1.6362 h   0  0  0  0  0  0  0  0  0  0  0  0
   -0.9808   -1.2455    1.8139 h   0  0  0  0  0  0  0  0  0  0  0  0
   -1.1524   -1.1876   -1.8548 h   0  0  0  0  0  0  0  0  0  0  0  0
   -1.4615   -2.2922   -0.5101 h   0  0  0  0  0  0  0  0  0  0  0  0
    1.0035   -0.2054    2.4150 h   0  0  0  0  0  0  0  0  0  0  0  0
    0.5524   -2.7137    0.7695 h   0  0  0  0  0  0  0  0  0  0  0  0
    1.9264   -1.5867    0.6576 h   0  0  0  0  0  0  0  0  0  0  0  0
   -3.9355   -1.0051   -1.4650 h   0  0  0  0  0  0  0  0  0  0  0  0
   -4.3383    0.2932   -0.2378 h   0  0  0  0  0  0  0  0  0  0  0  0
    4.0734    0.6086   -0.3057 h   0  0  0  0  0  0  0  0  0  0  0  0
    3.0993   -0.5824   -1.2909 h   0  0  0  0  0  0  0  0  0  0  0  0
    0.6989   -2.7852   -1.5649 h   0  0  0  0  0  0  0  0  0  0  0  0
    1.4533    2.0242    1.4619 h   0  0  0  0  0  0  0  0  0  0  0  0
    3.0935    2.3154    0.8724 h   0  0  0  0  0  0  0  0  0  0  0  0
    1.7136    3.0095    0.0253 h   0  0  0  0  0  0  0  0  0  0  0  0
  1  2  1  0  0  0  0
  2  3  1  0  0  0  0
  3  4  1  0  0  0  0
  4  5  1  0  0  0  0
  1  6  1  0  0  0  0
  5  6  1  0  0  0  0
  1  7  1  0  0  0  0
  5  8  1  0  0  0  0
  7  8  1  0  0  0  0
  6  9  1  0  0  0  0
  1 10  1  0  0  0  0
  8 11  2  0  0  0  0
  2 12  1  0  0  0  0
 12 13  2  0  0  0  0
  2 14  1  0  0  0  0
 10 15  1  0  0  0  0
 12 16  1  0  0  0  0
  3 17  1  0  0  0  0
  3 18  1  0  0  0  0
  4 19  1  0  0  0  0
  4 20  1  0  0  0  0
  5 21  1  0  0  0  0
  6 22  1  0  0  0  0
  7 23  1  0  0  0  0
  7 24  1  0  0  0  0
  9 25  1  0  0  0  0
 10 26  1  0  0  0  0
 10 27  1  0  0  0  0
 11 28  1  0  0  0  0
 11 29  1  0  0  0  0
 13 30  1  0  0  0  0
 13 31  1  0  0  0  0
 15 32  1  0  0  0  0
 16 33  1  0  0  0  0
 16 34  1  0  0  0  0
 16 35  1  0  0  0  0
M  END
