 xtb: 6.7.1 (edcfbbe)
          08092616283D

 35 36  0     0  0            999 V2000
    0.1471   -0.5999    0.3669 c   0  0  0  0  0  0  0  0  0  0  0  0
   -0.9094    0.4816    0.7207 c   0  0  0  0  0  0  0  0  0  0  0  0
   -0.3336    1.9035    0.5452 c   0  0  0  0  0  0  0  0  0  0  0  0
    0.5586    2.0906   -0.6812 c   0  0  0  0  0  0  0  0  0  0  0  0
    1.5320    0.9164   -0.8156 c   0  0  0  0  0  0  0  0  0  0  0  0
    0.7269   -0.3687   -1.0381 c   0  0  0  0  0  0  0  0  0  0  0  0
    1.3944   -0.3782    1.2466 c   0  0  0  0  0  0  0  0  0  0  0  0
    2.2059    0.6528    0.5075 c   0  0  0  0  0  0  0  0  0  0  0  0
    1.5594   -1.4648   -1.3785 o   0  0  0  0  0  0  0  0  0  0  0  0
   -0.4071   -2.0212    0.5414 c   0  0  0  0  0  0  0  0  0  0  0  0
    3.3184    1.2229    0.9329 c   0  0  0  0  0  0  0  0  0  0  0  0
   -2.2594    0.3198    0.0479 c   0  0  0  0  0  0  0  0  0  0  0  0
   -2.5320    0.6424   -1.2099 c   0  0  0  0  0  0  0  0  0  0  0  0
   -1.0990    0.3558    1.7934 h   0  0  0  0  0  0  0  0  0  0  0  0
   -1.3350   -2.4182   -0.4424 o   0  0  0  0  0  0  0  0  0  0  0  0
   -3.3546   -0.1620    0.9613 c   0  0  0  0  0  0  0  0  0  0  0  0
   -1.1600    2.6160    0.5077 h   0  0  0  0  0  0  0  0  0  0  0  0
    0.2628    2.1391    1.4284 h   0  0  0  0  0  0  0  0  0  0  0  0
   -0.0350    2.1720   -1.5926 h   0  0  0  0  0  0  0  0  0  0  0  0
    1.1210    3.0198   -0.5698 h   0  0  0  0  0  0  0  0  0  0  0  0
    2.2483    1.1044   -1.6198 h   0  0  0  0  0  0  0  0  0  0  0  0
   -0.0536   -0.2591   -1.7989 h   0  0  0  0  0  0  0  0  0  0  0  0
    1.9654   -1.3067    1.3102 h   0  0  0  0  0  0  0  0  0  0  0  0
    1.1457   -0.0665    2.2607 h   0  0  0  0  0  0  0  0  0  0  0  0
    1.9758   -1.2752   -2.2277 h   0  0  0  0  0  0  0  0  0  0  0  0
   -0.8506   -2.1154    1.5447 h   0  0  0  0  0  0  0  0  0  0  0  0
    0.4133   -2.7375    0.4575 h   0  0  0  0  0  0  0  0  0  0  0  0
    3.7400    0.9942    1.8974 h   0  0  0  0  0  0  0  0  0  0  0  0
    3.8534    1.9406    0.3339 h   0  0  0  0  0  0  0  0  0  0  0  0
   -3.5262    0.5260   -1.6106 h   0  0  0  0  0  0  0  0  0  0  0  0
   -1.8024    1.0351   -1.8931 h   0  0  0  0  0  0  0  0  0  0  0  0
   -2.0033   -1.7214   -0.5293 h   0  0  0  0  0  0  0  0  0  0  0  0
   -4.2781   -0.3332    0.4134 h   0  0  0  0  0  0  0  0  0  0  0  0
   -3.0727   -1.0825    1.4700 h   0  0  0  0  0  0  0  0  0  0  0  0
   -3.5442    0.5902    1.7279 h   0  0  0  0  0  0  0  0  0  0  0  0
  1  2  1  0  0  0  0
  2  3  1  0  0  0  0
  3  4  1  0  0  0  0
  4  5  1  0  0  0  0
  1  6  1  0  0  0  0
  5  6  1  0  0  0  0
  1  7  1  0  0  0  0
  5  8  1  0  0  0  0
  7  8  1  0  0  0  0
  6  9  1  0  0  0  0
  1 10  1  0  0  0  0
  8 11  2  0  0  0  0
  2 12  1  0  0  0  0
 12 13  2  0  0  0  0
  2 14  1  0  0  0  0
 10 15  1  0  0  0  0
 12 16  1  0  0  0  0
  3 17  1  0  0  0  0
  3 18  1  0  0  0  0
  4 19  1  0  0  0  0
  4 20  1  0  0  0  0
  5 21  1  0  0  0  0
  6 22  1  0  0  0  0
  7 23  1  0  0  0  0
  7 24  1  0  0  0  0
  9 25  1  0  0  0  0
 10 26  1  0  0  0  0
 10 27  1  0  0  0  0
 11 28  1  0  0  0  0
 11 29  1  0  0  0  0
 13 30  1  0  0  0  0
 13 31  1  0  0  0  0
 15 32  1  0  0  0  0
 16 33  1  0  0  0  0
 16 34  1  0  0  0  0
 16 35  1  0  0  0  0
M  END
