 xtb: 6.7.1 (edcfbbe)
          08092620553D

 50 55  0     0  0            999 V2000
    0.0435    0.5081    2.5819 c   0  0  0  0  0  0  0  0  0  0  0  0
    1.5425    0.7594    2.4192 c   0  0  0  0  0  0  0  0  0  0  0  0
   -2.2379   -3.2076   -0.2570 c   0  0  0  0  0  0  0  0  0  0  0  0
   -3.2885   -2.7568    0.5251 c   0  0  0  0  0  0  0  0  0  0  0  0
   -3.2350   -1.4958    1.0811 c   0  0  0  0  0  0  0  0  0  0  0  0
   -2.1505   -0.6508    0.8416 c   0  0  0  0  0  0  0  0  0  0  0  0
   -1.1179   -1.0780   -0.0071 c   0  0  0  0  0  0  0  0  0  0  0  0
   -1.1685   -2.3690   -0.5165 c   0  0  0  0  0  0  0  0  0  0  0  0
   -2.1298    0.6039    1.4247 n   0  0  0  0  0  0  0  0  0  0  0  0
   -0.8446    1.2442    1.5559 c   0  0  0  0  0  0  0  0  0  0  0  0
   -0.2061    1.2735    0.1502 c   0  0  0  0  0  0  0  0  0  0  0  0
    0.0405   -0.1643   -0.3537 c   0  0  0  0  0  0  0  0  0  0  0  0
    1.1882    1.8715    0.2565 c   0  0  0  0  0  0  0  0  0  0  0  0
    1.9518    0.7254    0.9361 c   0  0  0  0  0  0  0  0  0  0  0  0
    1.3912   -0.5705    0.3053 c   0  0  0  0  0  0  0  0  0  0  0  0
    3.4271    0.9041    0.7863 c   0  0  0  0  0  0  0  0  0  0  0  0
    4.1893    0.0544    0.1222 c   0  0  0  0  0  0  0  0  0  0  0  0
    3.6578   -1.1974   -0.4856 c   0  0  0  0  0  0  0  0  0  0  0  0
    2.2061   -1.1858   -0.7855 n   0  0  0  0  0  0  0  0  0  0  0  0
    1.8803   -0.3699   -1.9747 c   0  0  0  0  0  0  0  0  0  0  0  0
    0.3734   -0.1583   -1.8692 c   0  0  0  0  0  0  0  0  0  0  0  0
    1.8248   -2.4663   -0.9875 o   0  0  0  0  0  0  0  0  0  0  0  0
    1.2799   -1.3671    1.0420 h   0  0  0  0  0  0  0  0  0  0  0  0
   -1.1182    2.1011   -0.7353 c   0  0  0  0  0  0  0  0  0  0  0  0
   -0.9268    3.2755   -0.9725 o   0  0  0  0  0  0  0  0  0  0  0  0
   -2.1548    1.4207   -1.1967 o   0  0  0  0  0  0  0  0  0  0  0  0
   -3.1080    2.1274   -1.9886 c   0  0  0  0  0  0  0  0  0  0  0  0
   -0.2674    0.8023    3.5866 h   0  0  0  0  0  0  0  0  0  0  0  0
   -0.1593   -0.5599    2.4804 h   0  0  0  0  0  0  0  0  0  0  0  0
    1.8073    1.7353    2.8297 h   0  0  0  0  0  0  0  0  0  0  0  0
    2.0951    0.0010    2.9778 h   0  0  0  0  0  0  0  0  0  0  0  0
   -2.2476   -4.2074   -0.6642 h   0  0  0  0  0  0  0  0  0  0  0  0
   -4.1370   -3.3961    0.7219 h   0  0  0  0  0  0  0  0  0  0  0  0
   -4.0348   -1.1470    1.7199 h   0  0  0  0  0  0  0  0  0  0  0  0
   -0.3264   -2.7365   -1.0858 h   0  0  0  0  0  0  0  0  0  0  0  0
   -2.7550    0.7113    2.2103 h   0  0  0  0  0  0  0  0  0  0  0  0
   -1.0079    2.2801    1.8768 h   0  0  0  0  0  0  0  0  0  0  0  0
    1.1981    2.7835    0.8508 h   0  0  0  0  0  0  0  0  0  0  0  0
    1.5819    2.1145   -0.7291 h   0  0  0  0  0  0  0  0  0  0  0  0
    3.8375    1.7981    1.2316 h   0  0  0  0  0  0  0  0  0  0  0  0
    5.2535    0.2059    0.0211 h   0  0  0  0  0  0  0  0  0  0  0  0
    4.1660   -1.4441   -1.4202 h   0  0  0  0  0  0  0  0  0  0  0  0
    3.8069   -2.0454    0.1927 h   0  0  0  0  0  0  0  0  0  0  0  0
    2.4425    0.5627   -1.9321 h   0  0  0  0  0  0  0  0  0  0  0  0
    2.1601   -0.9387   -2.8612 h   0  0  0  0  0  0  0  0  0  0  0  0
   -0.1525   -0.9725   -2.3640 h   0  0  0  0  0  0  0  0  0  0  0  0
    0.0820    0.7761   -2.3452 h   0  0  0  0  0  0  0  0  0  0  0  0
   -3.6717    2.8202   -1.3618 h   0  0  0  0  0  0  0  0  0  0  0  0
   -2.6037    2.6907   -2.7759 h   0  0  0  0  0  0  0  0  0  0  0  0
   -3.7627    1.3690   -2.4084 h   0  0  0  0  0  0  0  0  0  0  0  0
  1  2  1  0  0  0  0
  3  4  4  0  0  0  0
  4  5  4  0  0  0  0
  5  6  4  0  0  0  0
  6  7  4  0  0  0  0
  3  8  4  0  0  0  0
  7  8  4  0  0  0  0
  6  9  1  0  0  0  0
  1 10  1  0  0  0  0
  9 10  1  0  0  0  0
 10 11  1  0  0  0  0
  7 12  1  0  0  0  0
 11 12  1  0  0  0  0
 11 13  1  0  0  0  0
  2 14  1  0  0  0  0
 13 14  1  0  0  0  0
 12 15  1  0  0  0  0
 14 15  1  0  0  0  0
 14 16  1  0  0  0  0
 16 17  2  0  0  0  0
 17 18  1  0  0  0  0
 15 19  1  0  0  0  0
 18 19  1  0  0  0  0
 19 20  1  0  0  0  0
 12 21  1  0  0  0  0
 20 21  1  0  0  0  0
 19 22  1  0  0  0  0
 15 23  1  0  0  0  0
 11 24  1  0  0  0  0
 24 25  2  0  0  0  0
 24 26  1  0  0  0  0
 26 27  1  0  0  0  0
  1 28  1  0  0  0  0
  1 29  1  0  0  0  0
  2 30  1  0  0  0  0
  2 31  1  0  0  0  0
  3 32  1  0  0  0  0
  4 33  1  0  0  0  0
  5 34  1  0  0  0  0
  8 35  1  0  0  0  0
  9 36  1  0  0  0  0
 10 37  1  0  0  0  0
 13 38  1  0  0  0  0
 13 39  1  0  0  0  0
 16 40  1  0  0  0  0
 17 41  1  0  0  0  0
 18 42  1  0  0  0  0
 18 43  1  0  0  0  0
 20 44  1  0  0  0  0
 20 45  1  0  0  0  0
 21 46  1  0  0  0  0
 21 47  1  0  0  0  0
 27 48  1  0  0  0  0
 27 49  1  0  0  0  0
 27 50  1  0  0  0  0
M  END
