 xtb: 6.7.1 (edcfbbe)
          08092612003D

 54 57  0     0  0            999 V2000
    1.3092    1.5038    1.9550 c   0  0  0  0  0  0  0  0  0  0  0  0
    2.7063    1.3002    1.3875 c   0  0  0  0  0  0  0  0  0  0  0  0
    2.7434    0.6634   -0.0122 c   0  0  0  0  0  0  0  0  0  0  0  0
    1.6870   -0.5000   -0.1739 c   0  0  0  0  0  0  0  0  0  0  0  0
    0.2906   -0.3014    0.5351 c   0  0  0  0  0  0  0  0  0  0  0  0
    0.5462    0.1849    1.9746 c   0  0  0  0  0  0  0  0  0  0  0  0
    1.3766   -0.7708   -1.6537 c   0  0  0  0  0  0  0  0  0  0  0  0
    0.5820   -2.0645   -1.8112 c   0  0  0  0  0  0  0  0  0  0  0  0
   -0.7122   -2.0734   -0.9917 c   0  0  0  0  0  0  0  0  0  0  0  0
   -0.5481   -1.6524    0.4985 c   0  0  0  0  0  0  0  0  0  0  0  0
   -0.8028    0.6789   -0.0085 c   0  0  0  0  0  0  0  0  0  0  0  0
   -1.9317   -1.1858    0.9786 c   0  0  0  0  0  0  0  0  0  0  0  0
   -2.0554    0.1682    0.3727 c   0  0  0  0  0  0  0  0  0  0  0  0
   -3.2669    0.8034    0.1741 c   0  0  0  0  0  0  0  0  0  0  0  0
   -3.2720    2.0339   -0.4686 c   0  0  0  0  0  0  0  0  0  0  0  0
   -2.0695    2.5600   -0.8592 c   0  0  0  0  0  0  0  0  0  0  0  0
   -0.8355    1.9309   -0.6311 c   0  0  0  0  0  0  0  0  0  0  0  0
    0.1923    2.6764   -1.0885 o   0  0  0  0  0  0  0  0  0  0  0  0
   -4.4593    0.2666    0.5834 o   0  0  0  0  0  0  0  0  0  0  0  0
    2.5449    1.7201   -0.9478 o   0  0  0  0  0  0  0  0  0  0  0  0
    4.2026    0.2271   -0.2708 c   0  0  0  0  0  0  0  0  0  0  0  0
    2.4181   -1.7272    0.4020 c   0  0  0  0  0  0  0  0  0  0  0  0
   -1.3904   -3.4331   -1.1750 c   0  0  0  0  0  0  0  0  0  0  0  0
   -0.1720   -2.8266    1.4201 c   0  0  0  0  0  0  0  0  0  0  0  0
    1.3987    1.8900    2.9729 h   0  0  0  0  0  0  0  0  0  0  0  0
    0.7625    2.2446    1.3735 h   0  0  0  0  0  0  0  0  0  0  0  0
    3.2715    0.6651    2.0716 h   0  0  0  0  0  0  0  0  0  0  0  0
    3.2220    2.2596    1.3193 h   0  0  0  0  0  0  0  0  0  0  0  0
   -0.4004    0.3311    2.4940 h   0  0  0  0  0  0  0  0  0  0  0  0
    1.1285   -0.5475    2.5348 h   0  0  0  0  0  0  0  0  0  0  0  0
    0.7857    0.0517   -2.0636 h   0  0  0  0  0  0  0  0  0  0  0  0
    2.2993   -0.8577   -2.2358 h   0  0  0  0  0  0  0  0  0  0  0  0
    0.3136   -2.1820   -2.8645 h   0  0  0  0  0  0  0  0  0  0  0  0
    1.2042   -2.9210   -1.5498 h   0  0  0  0  0  0  0  0  0  0  0  0
   -1.3664   -1.3177   -1.4410 h   0  0  0  0  0  0  0  0  0  0  0  0
   -1.9665   -1.1442    2.0717 h   0  0  0  0  0  0  0  0  0  0  0  0
   -2.7150   -1.8708    0.6457 h   0  0  0  0  0  0  0  0  0  0  0  0
   -4.2030    2.5459   -0.6455 h   0  0  0  0  0  0  0  0  0  0  0  0
   -2.0221    3.5150   -1.3584 h   0  0  0  0  0  0  0  0  0  0  0  0
    1.0676    2.2800   -0.8942 h   0  0  0  0  0  0  0  0  0  0  0  0
   -4.2954   -0.5706    1.0309 h   0  0  0  0  0  0  0  0  0  0  0  0
    2.7007    1.3854   -1.8383 h   0  0  0  0  0  0  0  0  0  0  0  0
    4.7992    1.1378   -0.3115 h   0  0  0  0  0  0  0  0  0  0  0  0
    4.6126   -0.4009    0.5112 h   0  0  0  0  0  0  0  0  0  0  0  0
    4.3031   -0.2804   -1.2286 h   0  0  0  0  0  0  0  0  0  0  0  0
    2.7767   -1.5359    1.4085 h   0  0  0  0  0  0  0  0  0  0  0  0
    1.7930   -2.5977    0.4274 h   0  0  0  0  0  0  0  0  0  0  0  0
    3.2672   -1.9761   -0.2268 h   0  0  0  0  0  0  0  0  0  0  0  0
   -0.7352   -4.2494   -0.8808 h   0  0  0  0  0  0  0  0  0  0  0  0
   -2.3094   -3.5111   -0.6011 h   0  0  0  0  0  0  0  0  0  0  0  0
   -1.6417   -3.5717   -2.2245 h   0  0  0  0  0  0  0  0  0  0  0  0
   -1.0880   -3.2926    1.7812 h   0  0  0  0  0  0  0  0  0  0  0  0
    0.3872   -3.6153    0.9264 h   0  0  0  0  0  0  0  0  0  0  0  0
    0.3849   -2.4940    2.2901 h   0  0  0  0  0  0  0  0  0  0  0  0
  1  2  1  0  0  0  0
  2  3  1  0  0  0  0
  3  4  1  0  0  0  0
  4  5  1  0  0  0  0
  1  6  1  0  0  0  0
  5  6  1  0  0  0  0
  4  7  1  0  0  0  0
  7  8  1  0  0  0  0
  8  9  1  0  0  0  0
  5 10  1  0  0  0  0
  9 10  1  0  0  0  0
  5 11  1  0  0  0  0
 10 12  1  0  0  0  0
 11 13  4  0  0  0  0
 12 13  1  0  0  0  0
 13 14  4  0  0  0  0
 14 15  4  0  0  0  0
 15 16  4  0  0  0  0
 11 17  4  0  0  0  0
 16 17  4  0  0  0  0
 17 18  1  0  0  0  0
 14 19  1  0  0  0  0
  3 20  1  0  0  0  0
  3 21  1  0  0  0  0
  4 22  1  0  0  0  0
  9 23  1  0  0  0  0
 10 24  1  0  0  0  0
  1 25  1  0  0  0  0
  1 26  1  0  0  0  0
  2 27  1  0  0  0  0
  2 28  1  0  0  0  0
  6 29  1  0  0  0  0
  6 30  1  0  0  0  0
  7 31  1  0  0  0  0
  7 32  1  0  0  0  0
  8 33  1  0  0  0  0
  8 34  1  0  0  0  0
  9 35  1  0  0  0  0
 12 36  1  0  0  0  0
 12 37  1  0  0  0  0
 15 38  1  0  0  0  0
 16 39  1  0  0  0  0
 18 40  1  0  0  0  0
 19 41  1  0  0  0  0
 20 42  1  0  0  0  0
 21 43  1  0  0  0  0
 21 44  1  0  0  0  0
 21 45  1  0  0  0  0
 22 46  1  0  0  0  0
 22 47  1  0  0  0  0
 22 48  1  0  0  0  0
 23 49  1  0  0  0  0
 23 50  1  0  0  0  0
 23 51  1  0  0  0  0
 24 52  1  0  0  0  0
 24 53  1  0  0  0  0
 24 54  1  0  0  0  0
M  END
