 xtb: 6.7.1 (edcfbbe)
          08092618423D

 35 36  0     0  0            999 V2000
    0.0131   -0.7611   -0.0488 c   0  0  0  0  0  0  0  0  0  0  0  0
    0.6314    0.4763   -0.7664 c   0  0  0  0  0  0  0  0  0  0  0  0
   -0.4278    1.5942   -0.8957 c   0  0  0  0  0  0  0  0  0  0  0  0
   -1.3099    1.8043    0.3364 c   0  0  0  0  0  0  0  0  0  0  0  0
   -1.8071    0.4613    0.8788 c   0  0  0  0  0  0  0  0  0  0  0  0
   -0.6038   -0.3922    1.3167 c   0  0  0  0  0  0  0  0  0  0  0  0
   -1.2493   -1.1993   -0.8183 c   0  0  0  0  0  0  0  0  0  0  0  0
   -2.3681   -0.3656   -0.2473 c   0  0  0  0  0  0  0  0  0  0  0  0
    0.2591    0.1657    2.2696 o   0  0  0  0  0  0  0  0  0  0  0  0
    0.9967   -1.9258    0.1163 c   0  0  0  0  0  0  0  0  0  0  0  0
   -3.6209   -0.3576   -0.6649 c   0  0  0  0  0  0  0  0  0  0  0  0
    1.9611    0.9916   -0.2367 c   0  0  0  0  0  0  0  0  0  0  0  0
    2.0914    2.0316    0.5785 c   0  0  0  0  0  0  0  0  0  0  0  0
    0.8404    0.1424   -1.7918 h   0  0  0  0  0  0  0  0  0  0  0  0
    1.4589   -2.4709   -1.0998 o   0  0  0  0  0  0  0  0  0  0  0  0
    3.1995    0.3489   -0.8018 c   0  0  0  0  0  0  0  0  0  0  0  0
    0.0743    2.5283   -1.1549 h   0  0  0  0  0  0  0  0  0  0  0  0
   -1.0865    1.3414   -1.7286 h   0  0  0  0  0  0  0  0  0  0  0  0
   -0.7846    2.3316    1.1340 h   0  0  0  0  0  0  0  0  0  0  0  0
   -2.1675    2.4178    0.0520 h   0  0  0  0  0  0  0  0  0  0  0  0
   -2.5202    0.6221    1.6894 h   0  0  0  0  0  0  0  0  0  0  0  0
   -0.9785   -1.3077    1.7927 h   0  0  0  0  0  0  0  0  0  0  0  0
   -1.1500   -1.0772   -1.8969 h   0  0  0  0  0  0  0  0  0  0  0  0
   -1.4438   -2.2583   -0.6328 h   0  0  0  0  0  0  0  0  0  0  0  0
    0.7656    0.8727    1.8420 h   0  0  0  0  0  0  0  0  0  0  0  0
    0.4867   -2.7511    0.6211 h   0  0  0  0  0  0  0  0  0  0  0  0
    1.8327   -1.6167    0.7578 h   0  0  0  0  0  0  0  0  0  0  0  0
   -3.9474   -0.9677   -1.4906 h   0  0  0  0  0  0  0  0  0  0  0  0
   -4.3703    0.2576   -0.1964 h   0  0  0  0  0  0  0  0  0  0  0  0
    3.0664    2.3803    0.8772 h   0  0  0  0  0  0  0  0  0  0  0  0
    1.2682    2.6047    0.9667 h   0  0  0  0  0  0  0  0  0  0  0  0
    1.9143   -1.7737   -1.5904 h   0  0  0  0  0  0  0  0  0  0  0  0
    3.3441   -0.6632   -0.4295 h   0  0  0  0  0  0  0  0  0  0  0  0
    3.1436    0.3098   -1.8899 h   0  0  0  0  0  0  0  0  0  0  0  0
    4.0804    0.9251   -0.5287 h   0  0  0  0  0  0  0  0  0  0  0  0
  1  2  1  0  0  0  0
  2  3  1  0  0  0  0
  3  4  1  0  0  0  0
  4  5  1  0  0  0  0
  1  6  1  0  0  0  0
  5  6  1  0  0  0  0
  1  7  1  0  0  0  0
  5  8  1  0  0  0  0
  7  8  1  0  0  0  0
  6  9  1  0  0  0  0
  1 10  1  0  0  0  0
  8 11  2  0  0  0  0
  2 12  1  0  0  0  0
 12 13  2  0  0  0  0
  2 14  1  0  0  0  0
 10 15  1  0  0  0  0
 12 16  1  0  0  0  0
  3 17  1  0  0  0  0
  3 18  1  0  0  0  0
  4 19  1  0  0  0  0
  4 20  1  0  0  0  0
  5 21  1  0  0  0  0
  6 22  1  0  0  0  0
  7 23  1  0  0  0  0
  7 24  1  0  0  0  0
  9 25  1  0  0  0  0
 10 26  1  0  0  0  0
 10 27  1  0  0  0  0
 11 28  1  0  0  0  0
 11 29  1  0  0  0  0
 13 30  1  0  0  0  0
 13 31  1  0  0  0  0
 15 32  1  0  0  0  0
 16 33  1  0  0  0  0
 16 34  1  0  0  0  0
 16 35  1  0  0  0  0
M  END
