 xtb: 6.7.1 (edcfbbe)
          08092618203D

 35 36  0     0  0            999 V2000
   -0.0743   -0.7877   -0.2805 c   0  0  0  0  0  0  0  0  0  0  0  0
    0.5252    0.5027   -0.9031 c   0  0  0  0  0  0  0  0  0  0  0  0
   -0.4567    1.6881   -0.7711 c   0  0  0  0  0  0  0  0  0  0  0  0
   -1.2379    1.7339    0.5405 c   0  0  0  0  0  0  0  0  0  0  0  0
   -1.8051    0.3516    0.8805 c   0  0  0  0  0  0  0  0  0  0  0  0
   -0.6343   -0.5974    1.1469 c   0  0  0  0  0  0  0  0  0  0  0  0
   -1.3837   -1.1108   -1.0282 c   0  0  0  0  0  0  0  0  0  0  0  0
   -2.4342   -0.2771   -0.3349 c   0  0  0  0  0  0  0  0  0  0  0  0
    0.2462   -0.1225    2.1333 o   0  0  0  0  0  0  0  0  0  0  0  0
    0.9178   -1.9575   -0.3281 c   0  0  0  0  0  0  0  0  0  0  0  0
   -3.6857   -0.1248   -0.7278 c   0  0  0  0  0  0  0  0  0  0  0  0
    1.9358    0.8709   -0.4777 c   0  0  0  0  0  0  0  0  0  0  0  0
    2.2536    1.4752    0.6591 c   0  0  0  0  0  0  0  0  0  0  0  0
    0.6007    0.2843   -1.9760 h   0  0  0  0  0  0  0  0  0  0  0  0
    1.9615   -1.8479    0.6202 o   0  0  0  0  0  0  0  0  0  0  0  0
    2.9891    0.6010   -1.5202 c   0  0  0  0  0  0  0  0  0  0  0  0
    0.0975    2.6202   -0.8971 h   0  0  0  0  0  0  0  0  0  0  0  0
   -1.1801    1.6227   -1.5865 h   0  0  0  0  0  0  0  0  0  0  0  0
   -0.6040    2.0519    1.3676 h   0  0  0  0  0  0  0  0  0  0  0  0
   -2.0538    2.4522    0.4417 h   0  0  0  0  0  0  0  0  0  0  0  0
   -2.4857    0.4223    1.7303 h   0  0  0  0  0  0  0  0  0  0  0  0
   -1.0332   -1.5742    1.4744 h   0  0  0  0  0  0  0  0  0  0  0  0
   -1.3252   -0.8962   -2.0950 h   0  0  0  0  0  0  0  0  0  0  0  0
   -1.6280   -2.1706   -0.9188 h   0  0  0  0  0  0  0  0  0  0  0  0
    1.0038   -0.7269    2.1419 h   0  0  0  0  0  0  0  0  0  0  0  0
    1.3293   -2.0660   -1.3409 h   0  0  0  0  0  0  0  0  0  0  0  0
    0.4021   -2.8875   -0.0710 h   0  0  0  0  0  0  0  0  0  0  0  0
   -4.0616   -0.5959   -1.6208 h   0  0  0  0  0  0  0  0  0  0  0  0
   -4.3838    0.4773   -0.1717 h   0  0  0  0  0  0  0  0  0  0  0  0
    3.2743    1.7458    0.8793 h   0  0  0  0  0  0  0  0  0  0  0  0
    1.5306    1.7066    1.4181 h   0  0  0  0  0  0  0  0  0  0  0  0
    2.4510   -1.0310    0.4306 h   0  0  0  0  0  0  0  0  0  0  0  0
    3.9840    0.8172   -1.1375 h   0  0  0  0  0  0  0  0  0  0  0  0
    2.9622   -0.4331   -1.8615 h   0  0  0  0  0  0  0  0  0  0  0  0
    2.8116    1.2352   -2.3897 h   0  0  0  0  0  0  0  0  0  0  0  0
  1  2  1  0  0  0  0
  2  3  1  0  0  0  0
  3  4  1  0  0  0  0
  4  5  1  0  0  0  0
  1  6  1  0  0  0  0
  5  6  1  0  0  0  0
  1  7  1  0  0  0  0
  5  8  1  0  0  0  0
  7  8  1  0  0  0  0
  6  9  1  0  0  0  0
  1 10  1  0  0  0  0
  8 11  2  0  0  0  0
  2 12  1  0  0  0  0
 12 13  2  0  0  0  0
  2 14  1  0  0  0  0
 10 15  1  0  0  0  0
 12 16  1  0  0  0  0
  3 17  1  0  0  0  0
  3 18  1  0  0  0  0
  4 19  1  0  0  0  0
  4 20  1  0  0  0  0
  5 21  1  0  0  0  0
  6 22  1  0  0  0  0
  7 23  1  0  0  0  0
  7 24  1  0  0  0  0
  9 25  1  0  0  0  0
 10 26  1  0  0  0  0
 10 27  1  0  0  0  0
 11 28  1  0  0  0  0
 11 29  1  0  0  0  0
 13 30  1  0  0  0  0
 13 31  1  0  0  0  0
 15 32  1  0  0  0  0
 16 33  1  0  0  0  0
 16 34  1  0  0  0  0
 16 35  1  0  0  0  0
M  END
