 xtb: 6.7.1 (edcfbbe)
          08092615283D

 35 36  0     0  0            999 V2000
    0.1129   -0.5611    0.4492 c   0  0  0  0  0  0  0  0  0  0  0  0
   -0.9159    0.5586    0.7466 c   0  0  0  0  0  0  0  0  0  0  0  0
   -0.3418    1.9589    0.4327 c   0  0  0  0  0  0  0  0  0  0  0  0
    0.5778    2.0419   -0.7872 c   0  0  0  0  0  0  0  0  0  0  0  0
    1.5340    0.8450   -0.8253 c   0  0  0  0  0  0  0  0  0  0  0  0
    0.6830   -0.4158   -0.9730 c   0  0  0  0  0  0  0  0  0  0  0  0
    1.3709   -0.3178    1.3079 c   0  0  0  0  0  0  0  0  0  0  0  0
    2.1955    0.6607    0.5161 c   0  0  0  0  0  0  0  0  0  0  0  0
    1.4385   -1.5791   -1.2938 o   0  0  0  0  0  0  0  0  0  0  0  0
   -0.4930   -1.9553    0.6979 c   0  0  0  0  0  0  0  0  0  0  0  0
    3.3098    1.2482    0.9127 c   0  0  0  0  0  0  0  0  0  0  0  0
   -2.2975    0.3354    0.1676 c   0  0  0  0  0  0  0  0  0  0  0  0
   -3.3051    0.0559    0.9834 c   0  0  0  0  0  0  0  0  0  0  0  0
   -1.0620    0.5251    1.8329 h   0  0  0  0  0  0  0  0  0  0  0  0
   -1.1891   -2.4733   -0.4148 o   0  0  0  0  0  0  0  0  0  0  0  0
   -2.5432    0.4577   -1.3062 c   0  0  0  0  0  0  0  0  0  0  0  0
   -1.1698    2.6610    0.3176 h   0  0  0  0  0  0  0  0  0  0  0  0
    0.2360    2.2814    1.3009 h   0  0  0  0  0  0  0  0  0  0  0  0
    0.0055    2.0639   -1.7164 h   0  0  0  0  0  0  0  0  0  0  0  0
    1.1525    2.9686   -0.7313 h   0  0  0  0  0  0  0  0  0  0  0  0
    2.2566    0.9638   -1.6379 h   0  0  0  0  0  0  0  0  0  0  0  0
   -0.0958   -0.2842   -1.7308 h   0  0  0  0  0  0  0  0  0  0  0  0
    1.9299   -1.2502    1.4168 h   0  0  0  0  0  0  0  0  0  0  0  0
    1.1328    0.0470    2.3064 h   0  0  0  0  0  0  0  0  0  0  0  0
    2.0304   -1.3648   -2.0248 h   0  0  0  0  0  0  0  0  0  0  0  0
   -1.2233   -1.9089    1.5083 h   0  0  0  0  0  0  0  0  0  0  0  0
    0.3046   -2.6530    0.9830 h   0  0  0  0  0  0  0  0  0  0  0  0
    3.7220    1.0786    1.8932 h   0  0  0  0  0  0  0  0  0  0  0  0
    3.8538    1.9240    0.2741 h   0  0  0  0  0  0  0  0  0  0  0  0
   -4.3065   -0.0961    0.6161 h   0  0  0  0  0  0  0  0  0  0  0  0
   -3.1773   -0.0462    2.0486 h   0  0  0  0  0  0  0  0  0  0  0  0
   -0.5298   -2.6133   -1.1087 h   0  0  0  0  0  0  0  0  0  0  0  0
   -3.6049    0.6007   -1.4954 h   0  0  0  0  0  0  0  0  0  0  0  0
   -1.9986    1.2930   -1.7369 h   0  0  0  0  0  0  0  0  0  0  0  0
   -2.2407   -0.4615   -1.8067 h   0  0  0  0  0  0  0  0  0  0  0  0
  1  2  1  0  0  0  0
  2  3  1  0  0  0  0
  3  4  1  0  0  0  0
  4  5  1  0  0  0  0
  1  6  1  0  0  0  0
  5  6  1  0  0  0  0
  1  7  1  0  0  0  0
  5  8  1  0  0  0  0
  7  8  1  0  0  0  0
  6  9  1  0  0  0  0
  1 10  1  0  0  0  0
  8 11  2  0  0  0  0
  2 12  1  0  0  0  0
 12 13  2  0  0  0  0
  2 14  1  0  0  0  0
 10 15  1  0  0  0  0
 12 16  1  0  0  0  0
  3 17  1  0  0  0  0
  3 18  1  0  0  0  0
  4 19  1  0  0  0  0
  4 20  1  0  0  0  0
  5 21  1  0  0  0  0
  6 22  1  0  0  0  0
  7 23  1  0  0  0  0
  7 24  1  0  0  0  0
  9 25  1  0  0  0  0
 10 26  1  0  0  0  0
 10 27  1  0  0  0  0
 11 28  1  0  0  0  0
 11 29  1  0  0  0  0
 13 30  1  0  0  0  0
 13 31  1  0  0  0  0
 15 32  1  0  0  0  0
 16 33  1  0  0  0  0
 16 34  1  0  0  0  0
 16 35  1  0  0  0  0
M  END
