 xtb: 6.7.1 (edcfbbe)
          08092615283D

 35 36  0     0  0            999 V2000
    0.0865   -0.6307    0.1046 c   0  0  0  0  0  0  0  0  0  0  0  0
   -0.9368    0.4004    0.6535 c   0  0  0  0  0  0  0  0  0  0  0  0
   -0.3106    1.8098    0.7324 c   0  0  0  0  0  0  0  0  0  0  0  0
    0.5862    2.1975   -0.4442 c   0  0  0  0  0  0  0  0  0  0  0  0
    1.4964    1.0298   -0.8291 c   0  0  0  0  0  0  0  0  0  0  0  0
    0.6220   -0.1492   -1.2608 c   0  0  0  0  0  0  0  0  0  0  0  0
    1.3604   -0.6096    0.9692 c   0  0  0  0  0  0  0  0  0  0  0  0
    2.1935    0.5053    0.3991 c   0  0  0  0  0  0  0  0  0  0  0  0
    1.4396   -1.0914   -1.9197 o   0  0  0  0  0  0  0  0  0  0  0  0
   -0.5124   -2.0410    0.0290 c   0  0  0  0  0  0  0  0  0  0  0  0
    3.3314    0.9575    0.8913 c   0  0  0  0  0  0  0  0  0  0  0  0
   -2.2814    0.3913   -0.0497 c   0  0  0  0  0  0  0  0  0  0  0  0
   -2.5439    1.0076   -1.1922 c   0  0  0  0  0  0  0  0  0  0  0  0
   -1.1378    0.1092    1.6937 h   0  0  0  0  0  0  0  0  0  0  0  0
   -0.8322   -2.5943    1.2809 o   0  0  0  0  0  0  0  0  0  0  0  0
   -3.3866   -0.3206    0.6833 c   0  0  0  0  0  0  0  0  0  0  0  0
   -1.1126    2.5431    0.8393 h   0  0  0  0  0  0  0  0  0  0  0  0
    0.2975    1.8554    1.6380 h   0  0  0  0  0  0  0  0  0  0  0  0
   -0.0039    2.4973   -1.3108 h   0  0  0  0  0  0  0  0  0  0  0  0
    1.1969    3.0539   -0.1513 h   0  0  0  0  0  0  0  0  0  0  0  0
    2.1948    1.3187   -1.6152 h   0  0  0  0  0  0  0  0  0  0  0  0
   -0.1924    0.1580   -1.9270 h   0  0  0  0  0  0  0  0  0  0  0  0
    1.8909   -1.5574    0.8561 h   0  0  0  0  0  0  0  0  0  0  0  0
    1.1503   -0.4756    2.0305 h   0  0  0  0  0  0  0  0  0  0  0  0
    0.8909   -1.7975   -2.2736 h   0  0  0  0  0  0  0  0  0  0  0  0
    0.2272   -2.7278   -0.3920 h   0  0  0  0  0  0  0  0  0  0  0  0
   -1.3939   -2.0316   -0.6327 h   0  0  0  0  0  0  0  0  0  0  0  0
    3.7657    0.5456    1.7866 h   0  0  0  0  0  0  0  0  0  0  0  0
    3.8783    1.7529    0.4146 h   0  0  0  0  0  0  0  0  0  0  0  0
   -3.5316    0.9799   -1.6227 h   0  0  0  0  0  0  0  0  0  0  0  0
   -1.8160    1.5693   -1.7468 h   0  0  0  0  0  0  0  0  0  0  0  0
   -1.4107   -1.9837    1.7516 h   0  0  0  0  0  0  0  0  0  0  0  0
   -3.4779    0.0685    1.6977 h   0  0  0  0  0  0  0  0  0  0  0  0
   -4.3373   -0.1782    0.1758 h   0  0  0  0  0  0  0  0  0  0  0  0
   -3.2016   -1.3920    0.7504 h   0  0  0  0  0  0  0  0  0  0  0  0
  1  2  1  0  0  0  0
  2  3  1  0  0  0  0
  3  4  1  0  0  0  0
  4  5  1  0  0  0  0
  1  6  1  0  0  0  0
  5  6  1  0  0  0  0
  1  7  1  0  0  0  0
  5  8  1  0  0  0  0
  7  8  1  0  0  0  0
  6  9  1  0  0  0  0
  1 10  1  0  0  0  0
  8 11  2  0  0  0  0
  2 12  1  0  0  0  0
 12 13  2  0  0  0  0
  2 14  1  0  0  0  0
 10 15  1  0  0  0  0
 12 16  1  0  0  0  0
  3 17  1  0  0  0  0
  3 18  1  0  0  0  0
  4 19  1  0  0  0  0
  4 20  1  0  0  0  0
  5 21  1  0  0  0  0
  6 22  1  0  0  0  0
  7 23  1  0  0  0  0
  7 24  1  0  0  0  0
  9 25  1  0  0  0  0
 10 26  1  0  0  0  0
 10 27  1  0  0  0  0
 11 28  1  0  0  0  0
 11 29  1  0  0  0  0
 13 30  1  0  0  0  0
 13 31  1  0  0  0  0
 15 32  1  0  0  0  0
 16 33  1  0  0  0  0
 16 34  1  0  0  0  0
 16 35  1  0  0  0  0
M  END
