 xtb: 6.7.1 (edcfbbe)
          08092617483D

 35 36  0     0  0            999 V2000
    0.0142   -0.7626   -0.0459 c   0  0  0  0  0  0  0  0  0  0  0  0
    0.6281    0.4732   -0.7699 c   0  0  0  0  0  0  0  0  0  0  0  0
   -0.4325    1.5892   -0.8997 c   0  0  0  0  0  0  0  0  0  0  0  0
   -1.3090    1.8033    0.3355 c   0  0  0  0  0  0  0  0  0  0  0  0
   -1.8030    0.4618    0.8830 c   0  0  0  0  0  0  0  0  0  0  0  0
   -0.5972   -0.3893    1.3219 c   0  0  0  0  0  0  0  0  0  0  0  0
   -1.2495   -1.2033   -0.8103 c   0  0  0  0  0  0  0  0  0  0  0  0
   -2.3653   -0.3642   -0.2424 c   0  0  0  0  0  0  0  0  0  0  0  0
    0.2638    0.1646    2.2694 o   0  0  0  0  0  0  0  0  0  0  0  0
    0.9986   -1.9274    0.1164 c   0  0  0  0  0  0  0  0  0  0  0  0
   -3.6158   -0.3484   -0.6647 c   0  0  0  0  0  0  0  0  0  0  0  0
    1.9565    0.9938   -0.2455 c   0  0  0  0  0  0  0  0  0  0  0  0
    2.0879    2.0463    0.5522 c   0  0  0  0  0  0  0  0  0  0  0  0
    0.8360    0.1371   -1.7960 h   0  0  0  0  0  0  0  0  0  0  0  0
    1.4568   -2.4722   -1.0956 o   0  0  0  0  0  0  0  0  0  0  0  0
    3.1968    0.3395   -0.7929 c   0  0  0  0  0  0  0  0  0  0  0  0
    0.0674    2.5224   -1.1675 h   0  0  0  0  0  0  0  0  0  0  0  0
   -1.0951    1.3311   -1.7279 h   0  0  0  0  0  0  0  0  0  0  0  0
   -0.7797    2.3351    1.1280 h   0  0  0  0  0  0  0  0  0  0  0  0
   -2.1671    2.4165    0.0518 h   0  0  0  0  0  0  0  0  0  0  0  0
   -2.5159    0.6251    1.6928 h   0  0  0  0  0  0  0  0  0  0  0  0
   -0.9738   -1.3049    1.7958 h   0  0  0  0  0  0  0  0  0  0  0  0
   -1.1524   -1.0888   -1.8901 h   0  0  0  0  0  0  0  0  0  0  0  0
   -1.4446   -2.2608   -0.6176 h   0  0  0  0  0  0  0  0  0  0  0  0
    0.7569    0.8853    1.8573 h   0  0  0  0  0  0  0  0  0  0  0  0
    0.4864   -2.7505    0.6221 h   0  0  0  0  0  0  0  0  0  0  0  0
    1.8319   -1.6170    0.7620 h   0  0  0  0  0  0  0  0  0  0  0  0
   -3.9432   -0.9573   -1.4905 h   0  0  0  0  0  0  0  0  0  0  0  0
   -4.3630    0.2715   -0.1995 h   0  0  0  0  0  0  0  0  0  0  0  0
    3.0628    2.3980    0.8466 h   0  0  0  0  0  0  0  0  0  0  0  0
    1.2651    2.6258    0.9320 h   0  0  0  0  0  0  0  0  0  0  0  0
    1.9264   -1.7879   -1.5849 h   0  0  0  0  0  0  0  0  0  0  0  0
    3.3497   -0.6575   -0.3845 h   0  0  0  0  0  0  0  0  0  0  0  0
    3.1392    0.2611   -1.8790 h   0  0  0  0  0  0  0  0  0  0  0  0
    4.0747    0.9308   -0.5436 h   0  0  0  0  0  0  0  0  0  0  0  0
  1  2  1  0  0  0  0
  2  3  1  0  0  0  0
  3  4  1  0  0  0  0
  4  5  1  0  0  0  0
  1  6  1  0  0  0  0
  5  6  1  0  0  0  0
  1  7  1  0  0  0  0
  5  8  1  0  0  0  0
  7  8  1  0  0  0  0
  6  9  1  0  0  0  0
  1 10  1  0  0  0  0
  8 11  2  0  0  0  0
  2 12  1  0  0  0  0
 12 13  2  0  0  0  0
  2 14  1  0  0  0  0
 10 15  1  0  0  0  0
 12 16  1  0  0  0  0
  3 17  1  0  0  0  0
  3 18  1  0  0  0  0
  4 19  1  0  0  0  0
  4 20  1  0  0  0  0
  5 21  1  0  0  0  0
  6 22  1  0  0  0  0
  7 23  1  0  0  0  0
  7 24  1  0  0  0  0
  9 25  1  0  0  0  0
 10 26  1  0  0  0  0
 10 27  1  0  0  0  0
 11 28  1  0  0  0  0
 11 29  1  0  0  0  0
 13 30  1  0  0  0  0
 13 31  1  0  0  0  0
 15 32  1  0  0  0  0
 16 33  1  0  0  0  0
 16 34  1  0  0  0  0
 16 35  1  0  0  0  0
M  END
