 xtb: 6.7.1 (edcfbbe)
          08092616283D

 35 36  0     0  0            999 V2000
   -0.0274   -0.5610    0.2812 c   0  0  0  0  0  0  0  0  0  0  0  0
   -1.0013    0.5652    0.7178 c   0  0  0  0  0  0  0  0  0  0  0  0
   -0.3407    1.9562    0.6025 c   0  0  0  0  0  0  0  0  0  0  0  0
    0.5839    2.1499   -0.6006 c   0  0  0  0  0  0  0  0  0  0  0  0
    1.4727    0.9187   -0.7971 c   0  0  0  0  0  0  0  0  0  0  0  0
    0.5588   -0.2727   -1.1112 c   0  0  0  0  0  0  0  0  0  0  0  0
    1.2312   -0.5004    1.1700 c   0  0  0  0  0  0  0  0  0  0  0  0
    2.1164    0.5191    0.5049 c   0  0  0  0  0  0  0  0  0  0  0  0
    1.2913   -1.3502   -1.6707 o   0  0  0  0  0  0  0  0  0  0  0  0
   -0.7446   -1.9133    0.3780 c   0  0  0  0  0  0  0  0  0  0  0  0
    3.2599    0.9819    0.9763 c   0  0  0  0  0  0  0  0  0  0  0  0
   -2.3825    0.5017    0.0961 c   0  0  0  0  0  0  0  0  0  0  0  0
   -3.4088    0.0941    0.8318 c   0  0  0  0  0  0  0  0  0  0  0  0
   -1.1712    0.3956    1.7882 h   0  0  0  0  0  0  0  0  0  0  0  0
    0.1880   -2.9807    0.2600 o   0  0  0  0  0  0  0  0  0  0  0  0
   -2.6091    0.9416   -1.3194 c   0  0  0  0  0  0  0  0  0  0  0  0
   -1.1222    2.7186    0.5976 h   0  0  0  0  0  0  0  0  0  0  0  0
    0.2564    2.1142    1.5025 h   0  0  0  0  0  0  0  0  0  0  0  0
    0.0177    2.3203   -1.5175 h   0  0  0  0  0  0  0  0  0  0  0  0
    1.2067    3.0295   -0.4266 h   0  0  0  0  0  0  0  0  0  0  0  0
    2.2018    1.0867   -1.5917 h   0  0  0  0  0  0  0  0  0  0  0  0
   -0.2056   -0.0021   -1.8453 h   0  0  0  0  0  0  0  0  0  0  0  0
    1.7272   -1.4738    1.1745 h   0  0  0  0  0  0  0  0  0  0  0  0
    1.0001   -0.2426    2.2035 h   0  0  0  0  0  0  0  0  0  0  0  0
    1.2153   -2.1069   -1.0697 h   0  0  0  0  0  0  0  0  0  0  0  0
   -1.4961   -1.9819   -0.4178 h   0  0  0  0  0  0  0  0  0  0  0  0
   -1.2575   -1.9800    1.3459 h   0  0  0  0  0  0  0  0  0  0  0  0
    3.6565    0.6573    1.9241 h   0  0  0  0  0  0  0  0  0  0  0  0
    3.8471    1.7015    0.4313 h   0  0  0  0  0  0  0  0  0  0  0  0
   -4.4106    0.0534    0.4372 h   0  0  0  0  0  0  0  0  0  0  0  0
   -3.2974   -0.2186    1.8568 h   0  0  0  0  0  0  0  0  0  0  0  0
   -0.2965   -3.8138    0.2424 h   0  0  0  0  0  0  0  0  0  0  0  0
   -2.1112    1.8856   -1.5218 h   0  0  0  0  0  0  0  0  0  0  0  0
   -2.2322    0.2006   -2.0231 h   0  0  0  0  0  0  0  0  0  0  0  0
   -3.6738    1.0648   -1.5051 h   0  0  0  0  0  0  0  0  0  0  0  0
  1  2  1  0  0  0  0
  2  3  1  0  0  0  0
  3  4  1  0  0  0  0
  4  5  1  0  0  0  0
  1  6  1  0  0  0  0
  5  6  1  0  0  0  0
  1  7  1  0  0  0  0
  5  8  1  0  0  0  0
  7  8  1  0  0  0  0
  6  9  1  0  0  0  0
  1 10  1  0  0  0  0
  8 11  2  0  0  0  0
  2 12  1  0  0  0  0
 12 13  2  0  0  0  0
  2 14  1  0  0  0  0
 10 15  1  0  0  0  0
 12 16  1  0  0  0  0
  3 17  1  0  0  0  0
  3 18  1  0  0  0  0
  4 19  1  0  0  0  0
  4 20  1  0  0  0  0
  5 21  1  0  0  0  0
  6 22  1  0  0  0  0
  7 23  1  0  0  0  0
  7 24  1  0  0  0  0
  9 25  1  0  0  0  0
 10 26  1  0  0  0  0
 10 27  1  0  0  0  0
 11 28  1  0  0  0  0
 11 29  1  0  0  0  0
 13 30  1  0  0  0  0
 13 31  1  0  0  0  0
 15 32  1  0  0  0  0
 16 33  1  0  0  0  0
 16 34  1  0  0  0  0
 16 35  1  0  0  0  0
M  END
