 xtb: 6.7.1 (edcfbbe)
          08092620033D

 50 55  0     0  0            999 V2000
    0.0542    0.5175    2.5859 c   0  0  0  0  0  0  0  0  0  0  0  0
    1.5507    0.7815    2.4231 c   0  0  0  0  0  0  0  0  0  0  0  0
   -2.2225   -3.2120   -0.2882 c   0  0  0  0  0  0  0  0  0  0  0  0
   -3.3278   -2.7324    0.3970 c   0  0  0  0  0  0  0  0  0  0  0  0
   -3.2928   -1.4746    0.9603 c   0  0  0  0  0  0  0  0  0  0  0  0
   -2.1677   -0.6614    0.8201 c   0  0  0  0  0  0  0  0  0  0  0  0
   -1.1001   -1.0984    0.0260 c   0  0  0  0  0  0  0  0  0  0  0  0
   -1.1252   -2.3939   -0.4780 c   0  0  0  0  0  0  0  0  0  0  0  0
   -2.1040    0.5223    1.5334 n   0  0  0  0  0  0  0  0  0  0  0  0
   -0.8566    1.2330    1.5642 c   0  0  0  0  0  0  0  0  0  0  0  0
   -0.2108    1.2692    0.1582 c   0  0  0  0  0  0  0  0  0  0  0  0
    0.0481   -0.1759   -0.3255 c   0  0  0  0  0  0  0  0  0  0  0  0
    1.1790    1.8774    0.2624 c   0  0  0  0  0  0  0  0  0  0  0  0
    1.9579    0.7417    0.9402 c   0  0  0  0  0  0  0  0  0  0  0  0
    1.4072   -0.5613    0.3203 c   0  0  0  0  0  0  0  0  0  0  0  0
    3.4305    0.9305    0.7802 c   0  0  0  0  0  0  0  0  0  0  0  0
    4.1941    0.0852    0.1108 c   0  0  0  0  0  0  0  0  0  0  0  0
    3.6687   -1.1712   -0.4919 c   0  0  0  0  0  0  0  0  0  0  0  0
    2.2115   -1.1805   -0.7836 n   0  0  0  0  0  0  0  0  0  0  0  0
    1.8693   -0.3568   -1.9679 c   0  0  0  0  0  0  0  0  0  0  0  0
    0.3590   -0.1872   -1.8472 c   0  0  0  0  0  0  0  0  0  0  0  0
    1.8395   -2.4391   -0.9801 o   0  0  0  0  0  0  0  0  0  0  0  0
    1.3120   -1.3561    1.0612 h   0  0  0  0  0  0  0  0  0  0  0  0
   -1.0972    2.0731   -0.7708 c   0  0  0  0  0  0  0  0  0  0  0  0
   -0.7935    3.1439   -1.2357 o   0  0  0  0  0  0  0  0  0  0  0  0
   -2.2700    1.4798   -1.0043 o   0  0  0  0  0  0  0  0  0  0  0  0
   -3.1621    2.1653   -1.8705 c   0  0  0  0  0  0  0  0  0  0  0  0
   -0.2615    0.8095    3.5889 h   0  0  0  0  0  0  0  0  0  0  0  0
   -0.1413   -0.5507    2.4896 h   0  0  0  0  0  0  0  0  0  0  0  0
    1.8095    1.7614    2.8299 h   0  0  0  0  0  0  0  0  0  0  0  0
    2.1096    0.0310    2.9865 h   0  0  0  0  0  0  0  0  0  0  0  0
   -2.2203   -4.2158   -0.6844 h   0  0  0  0  0  0  0  0  0  0  0  0
   -4.2068   -3.3493    0.5162 h   0  0  0  0  0  0  0  0  0  0  0  0
   -4.1317   -1.1056    1.5337 h   0  0  0  0  0  0  0  0  0  0  0  0
   -0.2460   -2.7660   -0.9875 h   0  0  0  0  0  0  0  0  0  0  0  0
   -2.9609    1.0371    1.6398 h   0  0  0  0  0  0  0  0  0  0  0  0
   -1.0372    2.2641    1.8885 h   0  0  0  0  0  0  0  0  0  0  0  0
    1.1843    2.7900    0.8571 h   0  0  0  0  0  0  0  0  0  0  0  0
    1.5660    2.1272   -0.7247 h   0  0  0  0  0  0  0  0  0  0  0  0
    3.8391    1.8288    1.2199 h   0  0  0  0  0  0  0  0  0  0  0  0
    5.2560    0.2508    0.0009 h   0  0  0  0  0  0  0  0  0  0  0  0
    4.1756   -1.4142   -1.4285 h   0  0  0  0  0  0  0  0  0  0  0  0
    3.8284   -2.0174    0.1859 h   0  0  0  0  0  0  0  0  0  0  0  0
    2.4101    0.5901   -1.9304 h   0  0  0  0  0  0  0  0  0  0  0  0
    2.1538   -0.9164   -2.8586 h   0  0  0  0  0  0  0  0  0  0  0  0
   -0.1414   -1.0326   -2.3155 h   0  0  0  0  0  0  0  0  0  0  0  0
    0.0293    0.7259   -2.3404 h   0  0  0  0  0  0  0  0  0  0  0  0
   -2.7203    2.2707   -2.8632 h   0  0  0  0  0  0  0  0  0  0  0  0
   -4.0621    1.5581   -1.9172 h   0  0  0  0  0  0  0  0  0  0  0  0
   -3.3843    3.1604   -1.4794 h   0  0  0  0  0  0  0  0  0  0  0  0
  1  2  1  0  0  0  0
  3  4  4  0  0  0  0
  4  5  4  0  0  0  0
  5  6  4  0  0  0  0
  6  7  4  0  0  0  0
  3  8  4  0  0  0  0
  7  8  4  0  0  0  0
  6  9  1  0  0  0  0
  1 10  1  0  0  0  0
  9 10  1  0  0  0  0
 10 11  1  0  0  0  0
  7 12  1  0  0  0  0
 11 12  1  0  0  0  0
 11 13  1  0  0  0  0
  2 14  1  0  0  0  0
 13 14  1  0  0  0  0
 12 15  1  0  0  0  0
 14 15  1  0  0  0  0
 14 16  1  0  0  0  0
 16 17  2  0  0  0  0
 17 18  1  0  0  0  0
 15 19  1  0  0  0  0
 18 19  1  0  0  0  0
 19 20  1  0  0  0  0
 12 21  1  0  0  0  0
 20 21  1  0  0  0  0
 19 22  1  0  0  0  0
 15 23  1  0  0  0  0
 11 24  1  0  0  0  0
 24 25  2  0  0  0  0
 24 26  1  0  0  0  0
 26 27  1  0  0  0  0
  1 28  1  0  0  0  0
  1 29  1  0  0  0  0
  2 30  1  0  0  0  0
  2 31  1  0  0  0  0
  3 32  1  0  0  0  0
  4 33  1  0  0  0  0
  5 34  1  0  0  0  0
  8 35  1  0  0  0  0
  9 36  1  0  0  0  0
 10 37  1  0  0  0  0
 13 38  1  0  0  0  0
 13 39  1  0  0  0  0
 16 40  1  0  0  0  0
 17 41  1  0  0  0  0
 18 42  1  0  0  0  0
 18 43  1  0  0  0  0
 20 44  1  0  0  0  0
 20 45  1  0  0  0  0
 21 46  1  0  0  0  0
 21 47  1  0  0  0  0
 27 48  1  0  0  0  0
 27 49  1  0  0  0  0
 27 50  1  0  0  0  0
M  END
