 xtb: 6.7.1 (edcfbbe)
          08092618203D

 35 36  0     0  0            999 V2000
   -0.0777   -0.7830   -0.2920 c   0  0  0  0  0  0  0  0  0  0  0  0
    0.5322    0.5106   -0.8954 c   0  0  0  0  0  0  0  0  0  0  0  0
   -0.4572    1.6895   -0.7661 c   0  0  0  0  0  0  0  0  0  0  0  0
   -1.2463    1.7322    0.5415 c   0  0  0  0  0  0  0  0  0  0  0  0
   -1.8018    0.3466    0.8857 c   0  0  0  0  0  0  0  0  0  0  0  0
   -0.6196   -0.5948    1.1395 c   0  0  0  0  0  0  0  0  0  0  0  0
   -1.3910   -1.0924   -1.0399 c   0  0  0  0  0  0  0  0  0  0  0  0
   -2.4409   -0.2781   -0.3250 c   0  0  0  0  0  0  0  0  0  0  0  0
    0.2725   -0.1116    2.1102 o   0  0  0  0  0  0  0  0  0  0  0  0
    0.8916   -1.9666   -0.3671 c   0  0  0  0  0  0  0  0  0  0  0  0
   -3.6995   -0.1374   -0.6994 c   0  0  0  0  0  0  0  0  0  0  0  0
    1.9361    0.8701   -0.4433 c   0  0  0  0  0  0  0  0  0  0  0  0
    2.2299    1.5476    0.6554 c   0  0  0  0  0  0  0  0  0  0  0  0
    0.6249    0.3018   -1.9691 h   0  0  0  0  0  0  0  0  0  0  0  0
    1.9643   -1.7741    0.5403 o   0  0  0  0  0  0  0  0  0  0  0  0
    3.0166    0.5157   -1.4273 c   0  0  0  0  0  0  0  0  0  0  0  0
    0.0938    2.6237   -0.8885 h   0  0  0  0  0  0  0  0  0  0  0  0
   -1.1762    1.6221   -1.5856 h   0  0  0  0  0  0  0  0  0  0  0  0
   -0.6195    2.0580    1.3709 h   0  0  0  0  0  0  0  0  0  0  0  0
   -2.0689    2.4422    0.4365 h   0  0  0  0  0  0  0  0  0  0  0  0
   -2.4733    0.4123    1.7431 h   0  0  0  0  0  0  0  0  0  0  0  0
   -1.0077   -1.5734    1.4800 h   0  0  0  0  0  0  0  0  0  0  0  0
   -1.3358   -0.8534   -2.1017 h   0  0  0  0  0  0  0  0  0  0  0  0
   -1.6337   -2.1549   -0.9537 h   0  0  0  0  0  0  0  0  0  0  0  0
    1.1309   -0.5200    1.9255 h   0  0  0  0  0  0  0  0  0  0  0  0
    1.2680   -2.0752   -1.3931 h   0  0  0  0  0  0  0  0  0  0  0  0
    0.3493   -2.8857   -0.1012 h   0  0  0  0  0  0  0  0  0  0  0  0
   -4.0822   -0.6039   -1.5920 h   0  0  0  0  0  0  0  0  0  0  0  0
   -4.3967    0.4511   -0.1278 h   0  0  0  0  0  0  0  0  0  0  0  0
    3.2496    1.8063    0.8914 h   0  0  0  0  0  0  0  0  0  0  0  0
    1.4923    1.8504    1.3743 h   0  0  0  0  0  0  0  0  0  0  0  0
    2.5615   -2.5292    0.4851 h   0  0  0  0  0  0  0  0  0  0  0  0
    2.9896   -0.5420   -1.6792 h   0  0  0  0  0  0  0  0  0  0  0  0
    2.8750    1.0810   -2.3496 h   0  0  0  0  0  0  0  0  0  0  0  0
    3.9986    0.7506   -1.0250 h   0  0  0  0  0  0  0  0  0  0  0  0
  1  2  1  0  0  0  0
  2  3  1  0  0  0  0
  3  4  1  0  0  0  0
  4  5  1  0  0  0  0
  1  6  1  0  0  0  0
  5  6  1  0  0  0  0
  1  7  1  0  0  0  0
  5  8  1  0  0  0  0
  7  8  1  0  0  0  0
  6  9  1  0  0  0  0
  1 10  1  0  0  0  0
  8 11  2  0  0  0  0
  2 12  1  0  0  0  0
 12 13  2  0  0  0  0
  2 14  1  0  0  0  0
 10 15  1  0  0  0  0
 12 16  1  0  0  0  0
  3 17  1  0  0  0  0
  3 18  1  0  0  0  0
  4 19  1  0  0  0  0
  4 20  1  0  0  0  0
  5 21  1  0  0  0  0
  6 22  1  0  0  0  0
  7 23  1  0  0  0  0
  7 24  1  0  0  0  0
  9 25  1  0  0  0  0
 10 26  1  0  0  0  0
 10 27  1  0  0  0  0
 11 28  1  0  0  0  0
 11 29  1  0  0  0  0
 13 30  1  0  0  0  0
 13 31  1  0  0  0  0
 15 32  1  0  0  0  0
 16 33  1  0  0  0  0
 16 34  1  0  0  0  0
 16 35  1  0  0  0  0
M  END
