 xtb: 6.7.1 (edcfbbe)
          08092603013D

 42 44  0     0  0            999 V2000
    0.9617    1.5392   -0.0046 c   0  0  0  0  0  0  0  0  0  0  0  0
    2.2482    1.0278    0.6590 c   0  0  0  0  0  0  0  0  0  0  0  0
    2.9892   -0.0557   -0.1331 c   0  0  0  0  0  0  0  0  0  0  0  0
    2.5494   -1.4809    0.2053 c   0  0  0  0  0  0  0  0  0  0  0  0
    1.1711   -1.8942   -0.3171 c   0  0  0  0  0  0  0  0  0  0  0  0
    0.0914   -0.9103    0.1346 c   0  0  0  0  0  0  0  0  0  0  0  0
    0.1081    0.4252   -0.6231 c   0  0  0  0  0  0  0  0  0  0  0  0
   -0.0014    2.1805    1.0075 c   0  0  0  0  0  0  0  0  0  0  0  0
   -1.3674    2.1504    0.3212 c   0  0  0  0  0  0  0  0  0  0  0  0
   -1.3631    0.8875   -0.5557 c   0  0  0  0  0  0  0  0  0  0  0  0
   -1.1952   -1.4382   -0.1233 o   0  0  0  0  0  0  0  0  0  0  0  0
   -2.1386   -0.3697   -0.0609 c   0  0  0  0  0  0  0  0  0  0  0  0
    0.4053    0.2269   -1.6552 h   0  0  0  0  0  0  0  0  0  0  0  0
   -1.7360    1.1364   -1.5512 h   0  0  0  0  0  0  0  0  0  0  0  0
    0.1969   -0.7393    1.2172 h   0  0  0  0  0  0  0  0  0  0  0  0
    0.8380   -3.3044    0.1675 c   0  0  0  0  0  0  0  0  0  0  0  0
   -3.2836   -0.7235   -1.0114 c   0  0  0  0  0  0  0  0  0  0  0  0
   -2.6861   -0.2668    1.3681 c   0  0  0  0  0  0  0  0  0  0  0  0
    1.3275    2.5567   -1.0902 c   0  0  0  0  0  0  0  0  0  0  0  0
    2.9115    1.8849    0.7984 h   0  0  0  0  0  0  0  0  0  0  0  0
    2.0260    0.6374    1.6542 h   0  0  0  0  0  0  0  0  0  0  0  0
    2.8799    0.1169   -1.2042 h   0  0  0  0  0  0  0  0  0  0  0  0
    4.0547    0.0206    0.0990 h   0  0  0  0  0  0  0  0  0  0  0  0
    2.5645   -1.6032    1.2917 h   0  0  0  0  0  0  0  0  0  0  0  0
    3.2839   -2.1765   -0.2086 h   0  0  0  0  0  0  0  0  0  0  0  0
    1.1855   -1.9015   -1.4125 h   0  0  0  0  0  0  0  0  0  0  0  0
    0.3008    3.1913    1.2796 h   0  0  0  0  0  0  0  0  0  0  0  0
   -0.0280    1.5819    1.9198 h   0  0  0  0  0  0  0  0  0  0  0  0
   -2.1835    2.1682    1.0386 h   0  0  0  0  0  0  0  0  0  0  0  0
   -1.4778    3.0291   -0.3157 h   0  0  0  0  0  0  0  0  0  0  0  0
   -0.1389   -3.5995   -0.2025 h   0  0  0  0  0  0  0  0  0  0  0  0
    1.5833   -4.0133   -0.1862 h   0  0  0  0  0  0  0  0  0  0  0  0
    0.8170   -3.3350    1.2548 h   0  0  0  0  0  0  0  0  0  0  0  0
   -2.8952   -0.8925   -2.0124 h   0  0  0  0  0  0  0  0  0  0  0  0
   -4.0128    0.0819   -1.0390 h   0  0  0  0  0  0  0  0  0  0  0  0
   -3.7707   -1.6352   -0.6762 h   0  0  0  0  0  0  0  0  0  0  0  0
   -3.5198    0.4282    1.4166 h   0  0  0  0  0  0  0  0  0  0  0  0
   -3.0379   -1.2514    1.6681 h   0  0  0  0  0  0  0  0  0  0  0  0
   -1.9151    0.0454    2.0666 h   0  0  0  0  0  0  0  0  0  0  0  0
    2.0285    2.1239   -1.8003 h   0  0  0  0  0  0  0  0  0  0  0  0
    0.4452    2.8755   -1.6381 h   0  0  0  0  0  0  0  0  0  0  0  0
    1.7932    3.4345   -0.6464 h   0  0  0  0  0  0  0  0  0  0  0  0
  1  2  1  0  0  0  0
  2  3  1  0  0  0  0
  3  4  1  0  0  0  0
  4  5  1  0  0  0  0
  5  6  1  0  0  0  0
  1  7  1  0  0  0  0
  6  7  1  0  0  0  0
  1  8  1  0  0  0  0
  8  9  1  0  0  0  0
  7 10  1  0  0  0  0
  9 10  1  0  0  0  0
  6 11  1  0  0  0  0
 10 12  1  0  0  0  0
 11 12  1  0  0  0  0
  7 13  1  0  0  0  0
 10 14  1  0  0  0  0
  6 15  1  0  0  0  0
  5 16  1  0  0  0  0
 12 17  1  0  0  0  0
 12 18  1  0  0  0  0
  1 19  1  0  0  0  0
  2 20  1  0  0  0  0
  2 21  1  0  0  0  0
  3 22  1  0  0  0  0
  3 23  1  0  0  0  0
  4 24  1  0  0  0  0
  4 25  1  0  0  0  0
  5 26  1  0  0  0  0
  8 27  1  0  0  0  0
  8 28  1  0  0  0  0
  9 29  1  0  0  0  0
  9 30  1  0  0  0  0
 16 31  1  0  0  0  0
 16 32  1  0  0  0  0
 16 33  1  0  0  0  0
 17 34  1  0  0  0  0
 17 35  1  0  0  0  0
 17 36  1  0  0  0  0
 18 37  1  0  0  0  0
 18 38  1  0  0  0  0
 18 39  1  0  0  0  0
 19 40  1  0  0  0  0
 19 41  1  0  0  0  0
 19 42  1  0  0  0  0
M  END
