 xtb: 6.7.1 (edcfbbe)
          08092616283D

 35 36  0     0  0            999 V2000
    0.0957   -0.6580    0.0884 c   0  0  0  0  0  0  0  0  0  0  0  0
   -0.9522    0.3020    0.7196 c   0  0  0  0  0  0  0  0  0  0  0  0
   -0.3484    1.7048    0.9107 c   0  0  0  0  0  0  0  0  0  0  0  0
    0.4786    2.2062   -0.2744 c   0  0  0  0  0  0  0  0  0  0  0  0
    1.4274    1.1071   -0.7632 c   0  0  0  0  0  0  0  0  0  0  0  0
    0.5939   -0.0796   -1.2516 c   0  0  0  0  0  0  0  0  0  0  0  0
    1.3879   -0.6426    0.9325 c   0  0  0  0  0  0  0  0  0  0  0  0
    2.1799    0.5250    0.4040 c   0  0  0  0  0  0  0  0  0  0  0  0
    1.4442   -0.9584   -1.9716 o   0  0  0  0  0  0  0  0  0  0  0  0
   -0.4568   -2.0829   -0.0472 c   0  0  0  0  0  0  0  0  0  0  0  0
    3.3307    0.9626    0.8804 c   0  0  0  0  0  0  0  0  0  0  0  0
   -2.3051    0.2984    0.0275 c   0  0  0  0  0  0  0  0  0  0  0  0
   -3.2263   -0.5775    0.4080 c   0  0  0  0  0  0  0  0  0  0  0  0
   -1.1467   -0.1035    1.7200 h   0  0  0  0  0  0  0  0  0  0  0  0
   -0.8525   -2.6475    1.1855 o   0  0  0  0  0  0  0  0  0  0  0  0
   -2.6339    1.3135   -1.0287 c   0  0  0  0  0  0  0  0  0  0  0  0
   -1.1471    2.4129    1.1368 h   0  0  0  0  0  0  0  0  0  0  0  0
    0.3052    1.6772    1.7845 h   0  0  0  0  0  0  0  0  0  0  0  0
   -0.1598    2.5181   -1.1004 h   0  0  0  0  0  0  0  0  0  0  0  0
    1.0629    3.0723    0.0424 h   0  0  0  0  0  0  0  0  0  0  0  0
    2.0910    1.4798   -1.5451 h   0  0  0  0  0  0  0  0  0  0  0  0
   -0.2296    0.2302   -1.9010 h   0  0  0  0  0  0  0  0  0  0  0  0
    1.9552   -1.5617    0.7599 h   0  0  0  0  0  0  0  0  0  0  0  0
    1.1956   -0.5545    2.0023 h   0  0  0  0  0  0  0  0  0  0  0  0
    0.9087   -1.6521   -2.3733 h   0  0  0  0  0  0  0  0  0  0  0  0
    0.3052   -2.7237   -0.5137 h   0  0  0  0  0  0  0  0  0  0  0  0
   -1.3543   -2.0883   -0.6709 h   0  0  0  0  0  0  0  0  0  0  0  0
    3.8060    0.5029    1.7310 h   0  0  0  0  0  0  0  0  0  0  0  0
    3.8463    1.7969    0.4361 h   0  0  0  0  0  0  0  0  0  0  0  0
   -4.2020   -0.6113   -0.0490 h   0  0  0  0  0  0  0  0  0  0  0  0
   -3.0390   -1.3101    1.1748 h   0  0  0  0  0  0  0  0  0  0  0  0
   -0.0867   -2.6445    1.7745 h   0  0  0  0  0  0  0  0  0  0  0  0
   -1.9985    1.2081   -1.9054 h   0  0  0  0  0  0  0  0  0  0  0  0
   -3.6672    1.1920   -1.3458 h   0  0  0  0  0  0  0  0  0  0  0  0
   -2.5128    2.3248   -0.6464 h   0  0  0  0  0  0  0  0  0  0  0  0
  1  2  1  0  0  0  0
  2  3  1  0  0  0  0
  3  4  1  0  0  0  0
  4  5  1  0  0  0  0
  1  6  1  0  0  0  0
  5  6  1  0  0  0  0
  1  7  1  0  0  0  0
  5  8  1  0  0  0  0
  7  8  1  0  0  0  0
  6  9  1  0  0  0  0
  1 10  1  0  0  0  0
  8 11  2  0  0  0  0
  2 12  1  0  0  0  0
 12 13  2  0  0  0  0
  2 14  1  0  0  0  0
 10 15  1  0  0  0  0
 12 16  1  0  0  0  0
  3 17  1  0  0  0  0
  3 18  1  0  0  0  0
  4 19  1  0  0  0  0
  4 20  1  0  0  0  0
  5 21  1  0  0  0  0
  6 22  1  0  0  0  0
  7 23  1  0  0  0  0
  7 24  1  0  0  0  0
  9 25  1  0  0  0  0
 10 26  1  0  0  0  0
 10 27  1  0  0  0  0
 11 28  1  0  0  0  0
 11 29  1  0  0  0  0
 13 30  1  0  0  0  0
 13 31  1  0  0  0  0
 15 32  1  0  0  0  0
 16 33  1  0  0  0  0
 16 34  1  0  0  0  0
 16 35  1  0  0  0  0
M  END
