 xtb: 6.7.1 (edcfbbe)
          08092617053D

 35 36  0     0  0            999 V2000
    0.0964   -0.6579    0.0877 c   0  0  0  0  0  0  0  0  0  0  0  0
   -0.9528    0.2997    0.7202 c   0  0  0  0  0  0  0  0  0  0  0  0
   -0.3502    1.7025    0.9147 c   0  0  0  0  0  0  0  0  0  0  0  0
    0.4758    2.2073   -0.2697 c   0  0  0  0  0  0  0  0  0  0  0  0
    1.4255    1.1103   -0.7614 c   0  0  0  0  0  0  0  0  0  0  0  0
    0.5933   -0.0766   -1.2515 c   0  0  0  0  0  0  0  0  0  0  0  0
    1.3889   -0.6423    0.9313 c   0  0  0  0  0  0  0  0  0  0  0  0
    2.1796    0.5267    0.4040 c   0  0  0  0  0  0  0  0  0  0  0  0
    1.4444   -0.9532   -1.9733 o   0  0  0  0  0  0  0  0  0  0  0  0
   -0.4541   -2.0835   -0.0499 c   0  0  0  0  0  0  0  0  0  0  0  0
    3.3310    0.9638    0.8795 c   0  0  0  0  0  0  0  0  0  0  0  0
   -2.3051    0.2964    0.0268 c   0  0  0  0  0  0  0  0  0  0  0  0
   -3.2252   -0.5825    0.4030 c   0  0  0  0  0  0  0  0  0  0  0  0
   -1.1478   -0.1081    1.7197 h   0  0  0  0  0  0  0  0  0  0  0  0
   -0.8495   -2.6500    1.1820 o   0  0  0  0  0  0  0  0  0  0  0  0
   -2.6345    1.3147   -1.0261 c   0  0  0  0  0  0  0  0  0  0  0  0
   -1.1495    2.4094    1.1428 h   0  0  0  0  0  0  0  0  0  0  0  0
    0.3037    1.6734    1.7882 h   0  0  0  0  0  0  0  0  0  0  0  0
   -0.1632    2.5205   -1.0947 h   0  0  0  0  0  0  0  0  0  0  0  0
    1.0595    3.0732    0.0489 h   0  0  0  0  0  0  0  0  0  0  0  0
    2.0880    1.4854   -1.5430 h   0  0  0  0  0  0  0  0  0  0  0  0
   -0.2309    0.2332   -1.9001 h   0  0  0  0  0  0  0  0  0  0  0  0
    1.9570   -1.5605    0.7572 h   0  0  0  0  0  0  0  0  0  0  0  0
    1.1970   -0.5559    2.0014 h   0  0  0  0  0  0  0  0  0  0  0  0
    0.9096   -1.6468   -2.3760 h   0  0  0  0  0  0  0  0  0  0  0  0
    0.3091   -2.7227   -0.5168 h   0  0  0  0  0  0  0  0  0  0  0  0
   -1.3512   -2.0894   -0.6739 h   0  0  0  0  0  0  0  0  0  0  0  0
    3.8076    0.5027    1.7287 h   0  0  0  0  0  0  0  0  0  0  0  0
    3.8459    1.7989    0.4359 h   0  0  0  0  0  0  0  0  0  0  0  0
   -4.2003   -0.6162   -0.0553 h   0  0  0  0  0  0  0  0  0  0  0  0
   -3.0376   -1.3177    1.1672 h   0  0  0  0  0  0  0  0  0  0  0  0
   -0.0840   -2.6469    1.7714 h   0  0  0  0  0  0  0  0  0  0  0  0
   -2.0003    1.2112   -1.9039 h   0  0  0  0  0  0  0  0  0  0  0  0
   -3.6683    1.1946   -1.3423 h   0  0  0  0  0  0  0  0  0  0  0  0
   -2.5123    2.3249   -0.6413 h   0  0  0  0  0  0  0  0  0  0  0  0
  1  2  1  0  0  0  0
  2  3  1  0  0  0  0
  3  4  1  0  0  0  0
  4  5  1  0  0  0  0
  1  6  1  0  0  0  0
  5  6  1  0  0  0  0
  1  7  1  0  0  0  0
  5  8  1  0  0  0  0
  7  8  1  0  0  0  0
  6  9  1  0  0  0  0
  1 10  1  0  0  0  0
  8 11  2  0  0  0  0
  2 12  1  0  0  0  0
 12 13  2  0  0  0  0
  2 14  1  0  0  0  0
 10 15  1  0  0  0  0
 12 16  1  0  0  0  0
  3 17  1  0  0  0  0
  3 18  1  0  0  0  0
  4 19  1  0  0  0  0
  4 20  1  0  0  0  0
  5 21  1  0  0  0  0
  6 22  1  0  0  0  0
  7 23  1  0  0  0  0
  7 24  1  0  0  0  0
  9 25  1  0  0  0  0
 10 26  1  0  0  0  0
 10 27  1  0  0  0  0
 11 28  1  0  0  0  0
 11 29  1  0  0  0  0
 13 30  1  0  0  0  0
 13 31  1  0  0  0  0
 15 32  1  0  0  0  0
 16 33  1  0  0  0  0
 16 34  1  0  0  0  0
 16 35  1  0  0  0  0
M  END
