 xtb: 6.7.1 (edcfbbe)
          08092618203D

 35 36  0     0  0            999 V2000
    0.0164   -0.7470   -0.0140 c   0  0  0  0  0  0  0  0  0  0  0  0
    0.6197    0.4698   -0.7640 c   0  0  0  0  0  0  0  0  0  0  0  0
   -0.4140    1.6101   -0.8776 c   0  0  0  0  0  0  0  0  0  0  0  0
   -1.2990    1.8077    0.3525 c   0  0  0  0  0  0  0  0  0  0  0  0
   -1.8257    0.4643    0.8687 c   0  0  0  0  0  0  0  0  0  0  0  0
   -0.6315   -0.3732    1.3371 c   0  0  0  0  0  0  0  0  0  0  0  0
   -1.2338   -1.2295   -0.7813 c   0  0  0  0  0  0  0  0  0  0  0  0
   -2.3589   -0.3652   -0.2677 c   0  0  0  0  0  0  0  0  0  0  0  0
    0.1501    0.3092    2.2837 o   0  0  0  0  0  0  0  0  0  0  0  0
    1.0445   -1.8729    0.1598 c   0  0  0  0  0  0  0  0  0  0  0  0
   -3.5926   -0.3400   -0.7377 c   0  0  0  0  0  0  0  0  0  0  0  0
    1.9766    0.9348   -0.2669 c   0  0  0  0  0  0  0  0  0  0  0  0
    2.1716    1.7692    0.7425 c   0  0  0  0  0  0  0  0  0  0  0  0
    0.8045    0.1127   -1.7848 h   0  0  0  0  0  0  0  0  0  0  0  0
    1.5405   -2.3853   -1.0588 o   0  0  0  0  0  0  0  0  0  0  0  0
    3.1348    0.4504   -1.0940 c   0  0  0  0  0  0  0  0  0  0  0  0
    0.1132    2.5397   -1.0988 h   0  0  0  0  0  0  0  0  0  0  0  0
   -1.0676    1.3945   -1.7260 h   0  0  0  0  0  0  0  0  0  0  0  0
   -0.7490    2.2865    1.1617 h   0  0  0  0  0  0  0  0  0  0  0  0
   -2.1391    2.4514    0.0852 h   0  0  0  0  0  0  0  0  0  0  0  0
   -2.5557    0.6277    1.6630 h   0  0  0  0  0  0  0  0  0  0  0  0
   -1.0064   -1.3060    1.7975 h   0  0  0  0  0  0  0  0  0  0  0  0
   -1.1250   -1.1477   -1.8631 h   0  0  0  0  0  0  0  0  0  0  0  0
   -1.4444   -2.2761   -0.5393 h   0  0  0  0  0  0  0  0  0  0  0  0
    0.9836   -0.1613    2.3973 h   0  0  0  0  0  0  0  0  0  0  0  0
    0.5915   -2.6862    0.7475 h   0  0  0  0  0  0  0  0  0  0  0  0
    1.9225   -1.5083    0.6992 h   0  0  0  0  0  0  0  0  0  0  0  0
   -3.8970   -0.9533   -1.5696 h   0  0  0  0  0  0  0  0  0  0  0  0
   -4.3475    0.2969   -0.3094 h   0  0  0  0  0  0  0  0  0  0  0  0
    3.1661    2.0845    1.0163 h   0  0  0  0  0  0  0  0  0  0  0  0
    1.3736    2.1626    1.3435 h   0  0  0  0  0  0  0  0  0  0  0  0
    0.7917   -2.7024   -1.5802 h   0  0  0  0  0  0  0  0  0  0  0  0
    3.0758   -0.6232   -1.2596 h   0  0  0  0  0  0  0  0  0  0  0  0
    3.1116    0.9349   -2.0712 h   0  0  0  0  0  0  0  0  0  0  0  0
    4.0832    0.6865   -0.6176 h   0  0  0  0  0  0  0  0  0  0  0  0
  1  2  1  0  0  0  0
  2  3  1  0  0  0  0
  3  4  1  0  0  0  0
  4  5  1  0  0  0  0
  1  6  1  0  0  0  0
  5  6  1  0  0  0  0
  1  7  1  0  0  0  0
  5  8  1  0  0  0  0
  7  8  1  0  0  0  0
  6  9  1  0  0  0  0
  1 10  1  0  0  0  0
  8 11  2  0  0  0  0
  2 12  1  0  0  0  0
 12 13  2  0  0  0  0
  2 14  1  0  0  0  0
 10 15  1  0  0  0  0
 12 16  1  0  0  0  0
  3 17  1  0  0  0  0
  3 18  1  0  0  0  0
  4 19  1  0  0  0  0
  4 20  1  0  0  0  0
  5 21  1  0  0  0  0
  6 22  1  0  0  0  0
  7 23  1  0  0  0  0
  7 24  1  0  0  0  0
  9 25  1  0  0  0  0
 10 26  1  0  0  0  0
 10 27  1  0  0  0  0
 11 28  1  0  0  0  0
 11 29  1  0  0  0  0
 13 30  1  0  0  0  0
 13 31  1  0  0  0  0
 15 32  1  0  0  0  0
 16 33  1  0  0  0  0
 16 34  1  0  0  0  0
 16 35  1  0  0  0  0
M  END
