 xtb: 6.7.1 (edcfbbe)
          08092622443D

 50 55  0     0  0            999 V2000
   -0.2839   -0.5192   -2.8023 c   0  0  0  0  0  0  0  0  0  0  0  0
    0.7872    0.5276   -2.4824 c   0  0  0  0  0  0  0  0  0  0  0  0
   -2.5796    3.0213    0.6808 c   0  0  0  0  0  0  0  0  0  0  0  0
   -3.6188    2.5564   -0.1082 c   0  0  0  0  0  0  0  0  0  0  0  0
   -3.4910    1.3450   -0.7514 c   0  0  0  0  0  0  0  0  0  0  0  0
   -2.3329    0.5743   -0.6131 c   0  0  0  0  0  0  0  0  0  0  0  0
   -1.2919    1.0179    0.2115 c   0  0  0  0  0  0  0  0  0  0  0  0
   -1.4410    2.2509    0.8354 c   0  0  0  0  0  0  0  0  0  0  0  0
   -2.2477   -0.6351   -1.2523 n   0  0  0  0  0  0  0  0  0  0  0  0
   -0.9610   -1.1847   -1.5744 c   0  0  0  0  0  0  0  0  0  0  0  0
   -0.0378   -1.1725   -0.3306 c   0  0  0  0  0  0  0  0  0  0  0  0
   -0.0507    0.1801    0.4510 c   0  0  0  0  0  0  0  0  0  0  0  0
    1.3897   -1.3227   -0.8841 c   0  0  0  0  0  0  0  0  0  0  0  0
    1.6902    0.1297   -1.2919 c   0  0  0  0  0  0  0  0  0  0  0  0
    1.2254    0.8642   -0.0514 c   0  0  0  0  0  0  0  0  0  0  0  0
    3.1289    0.4940   -1.5199 c   0  0  0  0  0  0  0  0  0  0  0  0
    3.8264    1.2431   -0.6755 c   0  0  0  0  0  0  0  0  0  0  0  0
    3.3168    1.7059    0.6660 c   0  0  0  0  0  0  0  0  0  0  0  0
    2.2470    0.7639    1.0531 n   0  0  0  0  0  0  0  0  0  0  0  0
    1.3999    1.0455    2.2302 c   0  0  0  0  0  0  0  0  0  0  0  0
    0.2362    0.0773    1.9774 c   0  0  0  0  0  0  0  0  0  0  0  0
    2.8340   -0.4342    1.2657 o   0  0  0  0  0  0  0  0  0  0  0  0
    1.0786    1.9307   -0.2276 h   0  0  0  0  0  0  0  0  0  0  0  0
   -0.4820   -2.3493    0.5093 c   0  0  0  0  0  0  0  0  0  0  0  0
    0.0321   -3.4451    0.4893 o   0  0  0  0  0  0  0  0  0  0  0  0
   -1.5686   -2.0660    1.2227 o   0  0  0  0  0  0  0  0  0  0  0  0
   -2.1300   -3.1239    1.9984 c   0  0  0  0  0  0  0  0  0  0  0  0
    0.1652   -1.3060   -3.4088 h   0  0  0  0  0  0  0  0  0  0  0  0
   -1.0619   -0.0515   -3.4096 h   0  0  0  0  0  0  0  0  0  0  0  0
    1.4003    0.6702   -3.3742 h   0  0  0  0  0  0  0  0  0  0  0  0
    0.3094    1.4841   -2.2618 h   0  0  0  0  0  0  0  0  0  0  0  0
   -2.6563    3.9753    1.1804 h   0  0  0  0  0  0  0  0  0  0  0  0
   -4.5189    3.1412   -0.2282 h   0  0  0  0  0  0  0  0  0  0  0  0
   -4.2895    0.9729   -1.3780 h   0  0  0  0  0  0  0  0  0  0  0  0
   -0.6560    2.6310    1.4683 h   0  0  0  0  0  0  0  0  0  0  0  0
   -2.9754   -0.8181   -1.9275 h   0  0  0  0  0  0  0  0  0  0  0  0
   -1.1300   -2.2393   -1.8327 h   0  0  0  0  0  0  0  0  0  0  0  0
    2.0781   -1.6271   -0.0958 h   0  0  0  0  0  0  0  0  0  0  0  0
    1.4466   -2.0386   -1.6986 h   0  0  0  0  0  0  0  0  0  0  0  0
    3.5806    0.1388   -2.4344 h   0  0  0  0  0  0  0  0  0  0  0  0
    4.8516    1.5041   -0.8922 h   0  0  0  0  0  0  0  0  0  0  0  0
    2.9475    2.7354    0.6381 h   0  0  0  0  0  0  0  0  0  0  0  0
    4.1133    1.6213    1.4082 h   0  0  0  0  0  0  0  0  0  0  0  0
    1.9587    0.7956    3.1310 h   0  0  0  0  0  0  0  0  0  0  0  0
    1.0990    2.0922    2.2465 h   0  0  0  0  0  0  0  0  0  0  0  0
   -0.6403    0.3101    2.5769 h   0  0  0  0  0  0  0  0  0  0  0  0
    0.5902   -0.9238    2.2239 h   0  0  0  0  0  0  0  0  0  0  0  0
   -2.9968   -2.6973    2.4949 h   0  0  0  0  0  0  0  0  0  0  0  0
   -2.4202   -3.9526    1.3504 h   0  0  0  0  0  0  0  0  0  0  0  0
   -1.4015   -3.4849    2.7266 h   0  0  0  0  0  0  0  0  0  0  0  0
  1  2  1  0  0  0  0
  3  4  4  0  0  0  0
  4  5  4  0  0  0  0
  5  6  4  0  0  0  0
  6  7  4  0  0  0  0
  3  8  4  0  0  0  0
  7  8  4  0  0  0  0
  6  9  1  0  0  0  0
  1 10  1  0  0  0  0
  9 10  1  0  0  0  0
 10 11  1  0  0  0  0
  7 12  1  0  0  0  0
 11 12  1  0  0  0  0
 11 13  1  0  0  0  0
  2 14  1  0  0  0  0
 13 14  1  0  0  0  0
 12 15  1  0  0  0  0
 14 15  1  0  0  0  0
 14 16  1  0  0  0  0
 16 17  2  0  0  0  0
 17 18  1  0  0  0  0
 15 19  1  0  0  0  0
 18 19  1  0  0  0  0
 19 20  1  0  0  0  0
 12 21  1  0  0  0  0
 20 21  1  0  0  0  0
 19 22  1  0  0  0  0
 15 23  1  0  0  0  0
 11 24  1  0  0  0  0
 24 25  2  0  0  0  0
 24 26  1  0  0  0  0
 26 27  1  0  0  0  0
  1 28  1  0  0  0  0
  1 29  1  0  0  0  0
  2 30  1  0  0  0  0
  2 31  1  0  0  0  0
  3 32  1  0  0  0  0
  4 33  1  0  0  0  0
  5 34  1  0  0  0  0
  8 35  1  0  0  0  0
  9 36  1  0  0  0  0
 10 37  1  0  0  0  0
 13 38  1  0  0  0  0
 13 39  1  0  0  0  0
 16 40  1  0  0  0  0
 17 41  1  0  0  0  0
 18 42  1  0  0  0  0
 18 43  1  0  0  0  0
 20 44  1  0  0  0  0
 20 45  1  0  0  0  0
 21 46  1  0  0  0  0
 21 47  1  0  0  0  0
 27 48  1  0  0  0  0
 27 49  1  0  0  0  0
 27 50  1  0  0  0  0
M  END
