 xtb: 6.7.1 (edcfbbe)
          08092615283D

 35 36  0     0  0            999 V2000
   -0.0204   -0.5605    0.2944 c   0  0  0  0  0  0  0  0  0  0  0  0
   -0.9999    0.5778    0.6939 c   0  0  0  0  0  0  0  0  0  0  0  0
   -0.3271    1.9628    0.5888 c   0  0  0  0  0  0  0  0  0  0  0  0
    0.5800    2.1493   -0.6271 c   0  0  0  0  0  0  0  0  0  0  0  0
    1.4592    0.9130   -0.8244 c   0  0  0  0  0  0  0  0  0  0  0  0
    0.5625   -0.2958   -1.1060 c   0  0  0  0  0  0  0  0  0  0  0  0
    1.2410   -0.4740    1.1749 c   0  0  0  0  0  0  0  0  0  0  0  0
    2.1161    0.5381    0.4797 c   0  0  0  0  0  0  0  0  0  0  0  0
    1.3689   -1.3508   -1.6009 o   0  0  0  0  0  0  0  0  0  0  0  0
   -0.7565   -1.9056    0.4109 c   0  0  0  0  0  0  0  0  0  0  0  0
    3.2622    1.0113    0.9334 c   0  0  0  0  0  0  0  0  0  0  0  0
   -2.3474    0.5288   -0.0027 c   0  0  0  0  0  0  0  0  0  0  0  0
   -2.5825    0.9240   -1.2449 c   0  0  0  0  0  0  0  0  0  0  0  0
   -1.2136    0.4195    1.7579 h   0  0  0  0  0  0  0  0  0  0  0  0
    0.0142   -3.0458    0.0760 o   0  0  0  0  0  0  0  0  0  0  0  0
   -3.4835    0.0706    0.8692 c   0  0  0  0  0  0  0  0  0  0  0  0
   -1.1037    2.7298    0.5878 h   0  0  0  0  0  0  0  0  0  0  0  0
    0.2811    2.1134    1.4828 h   0  0  0  0  0  0  0  0  0  0  0  0
   -0.0020    2.3248   -1.5319 h   0  0  0  0  0  0  0  0  0  0  0  0
    1.2125    3.0243   -0.4658 h   0  0  0  0  0  0  0  0  0  0  0  0
    2.1824    1.0668   -1.6268 h   0  0  0  0  0  0  0  0  0  0  0  0
   -0.2229   -0.0828   -1.8406 h   0  0  0  0  0  0  0  0  0  0  0  0
    1.7680   -1.4319    1.1921 h   0  0  0  0  0  0  0  0  0  0  0  0
    1.0172   -0.1959    2.2051 h   0  0  0  0  0  0  0  0  0  0  0  0
    0.9239   -2.1867   -1.3838 h   0  0  0  0  0  0  0  0  0  0  0  0
   -1.5937   -1.9189   -0.2914 h   0  0  0  0  0  0  0  0  0  0  0  0
   -1.1484   -2.0152    1.4304 h   0  0  0  0  0  0  0  0  0  0  0  0
    3.6675    0.7068    1.8842 h   0  0  0  0  0  0  0  0  0  0  0  0
    3.8431    1.7214    0.3699 h   0  0  0  0  0  0  0  0  0  0  0  0
   -3.5767    0.8838   -1.6601 h   0  0  0  0  0  0  0  0  0  0  0  0
   -1.8247    1.3067   -1.9027 h   0  0  0  0  0  0  0  0  0  0  0  0
    0.7255   -3.1425    0.7231 h   0  0  0  0  0  0  0  0  0  0  0  0
   -3.6234    0.7771    1.6878 h   0  0  0  0  0  0  0  0  0  0  0  0
   -4.4101    0.0117    0.3042 h   0  0  0  0  0  0  0  0  0  0  0  0
   -3.2776   -0.9047    1.3051 h   0  0  0  0  0  0  0  0  0  0  0  0
  1  2  1  0  0  0  0
  2  3  1  0  0  0  0
  3  4  1  0  0  0  0
  4  5  1  0  0  0  0
  1  6  1  0  0  0  0
  5  6  1  0  0  0  0
  1  7  1  0  0  0  0
  5  8  1  0  0  0  0
  7  8  1  0  0  0  0
  6  9  1  0  0  0  0
  1 10  1  0  0  0  0
  8 11  2  0  0  0  0
  2 12  1  0  0  0  0
 12 13  2  0  0  0  0
  2 14  1  0  0  0  0
 10 15  1  0  0  0  0
 12 16  1  0  0  0  0
  3 17  1  0  0  0  0
  3 18  1  0  0  0  0
  4 19  1  0  0  0  0
  4 20  1  0  0  0  0
  5 21  1  0  0  0  0
  6 22  1  0  0  0  0
  7 23  1  0  0  0  0
  7 24  1  0  0  0  0
  9 25  1  0  0  0  0
 10 26  1  0  0  0  0
 10 27  1  0  0  0  0
 11 28  1  0  0  0  0
 11 29  1  0  0  0  0
 13 30  1  0  0  0  0
 13 31  1  0  0  0  0
 15 32  1  0  0  0  0
 16 33  1  0  0  0  0
 16 34  1  0  0  0  0
 16 35  1  0  0  0  0
M  END
