 xtb: 6.7.1 (edcfbbe)
          08092615283D

 35 36  0     0  0            999 V2000
   -0.0386   -0.5652    0.2867 c   0  0  0  0  0  0  0  0  0  0  0  0
   -1.0098    0.5600    0.7271 c   0  0  0  0  0  0  0  0  0  0  0  0
   -0.3506    1.9521    0.6120 c   0  0  0  0  0  0  0  0  0  0  0  0
    0.5688    2.1477   -0.5945 c   0  0  0  0  0  0  0  0  0  0  0  0
    1.4547    0.9156   -0.8034 c   0  0  0  0  0  0  0  0  0  0  0  0
    0.5396   -0.2708   -1.1100 c   0  0  0  0  0  0  0  0  0  0  0  0
    1.2269   -0.5038    1.1640 c   0  0  0  0  0  0  0  0  0  0  0  0
    2.1124    0.5084    0.4914 c   0  0  0  0  0  0  0  0  0  0  0  0
    1.2553   -1.4017   -1.5950 o   0  0  0  0  0  0  0  0  0  0  0  0
   -0.7483   -1.9252    0.3814 c   0  0  0  0  0  0  0  0  0  0  0  0
    3.2686    0.9611    0.9414 c   0  0  0  0  0  0  0  0  0  0  0  0
   -2.3951    0.5006    0.1145 c   0  0  0  0  0  0  0  0  0  0  0  0
   -3.4215    0.1202    0.8637 c   0  0  0  0  0  0  0  0  0  0  0  0
   -1.1737    0.3866    1.7970 h   0  0  0  0  0  0  0  0  0  0  0  0
    0.1170   -3.0323    0.2834 o   0  0  0  0  0  0  0  0  0  0  0  0
   -2.6264    0.9134   -1.3094 c   0  0  0  0  0  0  0  0  0  0  0  0
   -1.1321    2.7144    0.6093 h   0  0  0  0  0  0  0  0  0  0  0  0
    0.2494    2.1098    1.5099 h   0  0  0  0  0  0  0  0  0  0  0  0
   -0.0028    2.3257   -1.5071 h   0  0  0  0  0  0  0  0  0  0  0  0
    1.1956    3.0244   -0.4202 h   0  0  0  0  0  0  0  0  0  0  0  0
    2.1802    1.1039   -1.6003 h   0  0  0  0  0  0  0  0  0  0  0  0
   -0.2331   -0.0135   -1.8411 h   0  0  0  0  0  0  0  0  0  0  0  0
    1.7122   -1.4832    1.1669 h   0  0  0  0  0  0  0  0  0  0  0  0
    1.0048   -0.2434    2.1985 h   0  0  0  0  0  0  0  0  0  0  0  0
    1.8231   -1.1150   -2.3204 h   0  0  0  0  0  0  0  0  0  0  0  0
   -1.5221   -1.9833   -0.3976 h   0  0  0  0  0  0  0  0  0  0  0  0
   -1.2369   -2.0176    1.3549 h   0  0  0  0  0  0  0  0  0  0  0  0
    3.6775    0.6333    1.8823 h   0  0  0  0  0  0  0  0  0  0  0  0
    3.8521    1.6783    0.3885 h   0  0  0  0  0  0  0  0  0  0  0  0
   -4.4259    0.0832    0.4754 h   0  0  0  0  0  0  0  0  0  0  0  0
   -3.3061   -0.1799    1.8917 h   0  0  0  0  0  0  0  0  0  0  0  0
    0.6661   -2.8855   -0.5023 h   0  0  0  0  0  0  0  0  0  0  0  0
   -2.0939    1.8296   -1.5480 h   0  0  0  0  0  0  0  0  0  0  0  0
   -2.2983    0.1338   -1.9959 h   0  0  0  0  0  0  0  0  0  0  0  0
   -3.6881    1.0768   -1.4805 h   0  0  0  0  0  0  0  0  0  0  0  0
  1  2  1  0  0  0  0
  2  3  1  0  0  0  0
  3  4  1  0  0  0  0
  4  5  1  0  0  0  0
  1  6  1  0  0  0  0
  5  6  1  0  0  0  0
  1  7  1  0  0  0  0
  5  8  1  0  0  0  0
  7  8  1  0  0  0  0
  6  9  1  0  0  0  0
  1 10  1  0  0  0  0
  8 11  2  0  0  0  0
  2 12  1  0  0  0  0
 12 13  2  0  0  0  0
  2 14  1  0  0  0  0
 10 15  1  0  0  0  0
 12 16  1  0  0  0  0
  3 17  1  0  0  0  0
  3 18  1  0  0  0  0
  4 19  1  0  0  0  0
  4 20  1  0  0  0  0
  5 21  1  0  0  0  0
  6 22  1  0  0  0  0
  7 23  1  0  0  0  0
  7 24  1  0  0  0  0
  9 25  1  0  0  0  0
 10 26  1  0  0  0  0
 10 27  1  0  0  0  0
 11 28  1  0  0  0  0
 11 29  1  0  0  0  0
 13 30  1  0  0  0  0
 13 31  1  0  0  0  0
 15 32  1  0  0  0  0
 16 33  1  0  0  0  0
 16 34  1  0  0  0  0
 16 35  1  0  0  0  0
M  END
