 xtb: 6.7.1 (edcfbbe)
          08092603013D

 42 44  0     0  0            999 V2000
    0.9845    1.5883   -0.1245 c   0  0  0  0  0  0  0  0  0  0  0  0
    2.3113    1.0764    0.4549 c   0  0  0  0  0  0  0  0  0  0  0  0
    2.9610   -0.0624   -0.3407 c   0  0  0  0  0  0  0  0  0  0  0  0
    2.5332   -1.4611    0.1052 c   0  0  0  0  0  0  0  0  0  0  0  0
    1.1014   -1.8636   -0.2565 c   0  0  0  0  0  0  0  0  0  0  0  0
    0.0959   -0.8446    0.2901 c   0  0  0  0  0  0  0  0  0  0  0  0
    0.0308    0.4542   -0.5247 c   0  0  0  0  0  0  0  0  0  0  0  0
    0.1841    2.4236    0.9093 c   0  0  0  0  0  0  0  0  0  0  0  0
   -1.1710    1.7306    1.0976 c   0  0  0  0  0  0  0  0  0  0  0  0
   -1.3829    0.9377   -0.1951 c   0  0  0  0  0  0  0  0  0  0  0  0
   -1.2238   -1.3742    0.2679 o   0  0  0  0  0  0  0  0  0  0  0  0
   -2.1799   -0.3738   -0.0944 c   0  0  0  0  0  0  0  0  0  0  0  0
    0.1371    0.2049   -1.5830 h   0  0  0  0  0  0  0  0  0  0  0  0
   -1.7972    1.5858   -0.9692 h   0  0  0  0  0  0  0  0  0  0  0  0
    0.3575   -0.6319    1.3375 h   0  0  0  0  0  0  0  0  0  0  0  0
    0.8037   -3.2558    0.2974 c   0  0  0  0  0  0  0  0  0  0  0  0
   -2.7730   -0.7385   -1.4634 c   0  0  0  0  0  0  0  0  0  0  0  0
   -3.3024   -0.3516    0.9448 c   0  0  0  0  0  0  0  0  0  0  0  0
    1.2726    2.4564   -1.3549 c   0  0  0  0  0  0  0  0  0  0  0  0
    3.0015    1.9231    0.4939 h   0  0  0  0  0  0  0  0  0  0  0  0
    2.1625    0.7399    1.4824 h   0  0  0  0  0  0  0  0  0  0  0  0
    2.7596    0.0562   -1.4056 h   0  0  0  0  0  0  0  0  0  0  0  0
    4.0441    0.0050   -0.2089 h   0  0  0  0  0  0  0  0  0  0  0  0
    2.6559   -1.5380    1.1888 h   0  0  0  0  0  0  0  0  0  0  0  0
    3.2099   -2.1893   -0.3495 h   0  0  0  0  0  0  0  0  0  0  0  0
    0.9989   -1.8979   -1.3471 h   0  0  0  0  0  0  0  0  0  0  0  0
    0.0356    3.4344    0.5286 h   0  0  0  0  0  0  0  0  0  0  0  0
    0.7182    2.5078    1.8556 h   0  0  0  0  0  0  0  0  0  0  0  0
   -1.1232    1.0504    1.9468 h   0  0  0  0  0  0  0  0  0  0  0  0
   -1.9736    2.4437    1.2810 h   0  0  0  0  0  0  0  0  0  0  0  0
    0.9113   -3.2617    1.3797 h   0  0  0  0  0  0  0  0  0  0  0  0
   -0.2158   -3.5392    0.0552 h   0  0  0  0  0  0  0  0  0  0  0  0
    1.4886   -3.9874   -0.1256 h   0  0  0  0  0  0  0  0  0  0  0  0
   -3.1763   -1.7470   -1.4229 h   0  0  0  0  0  0  0  0  0  0  0  0
   -2.0052   -0.7084   -2.2322 h   0  0  0  0  0  0  0  0  0  0  0  0
   -3.5696   -0.0481   -1.7283 h   0  0  0  0  0  0  0  0  0  0  0  0
   -3.9803    0.4740    0.7453 h   0  0  0  0  0  0  0  0  0  0  0  0
   -3.8552   -1.2861    0.8977 h   0  0  0  0  0  0  0  0  0  0  0  0
   -2.9001   -0.2489    1.9478 h   0  0  0  0  0  0  0  0  0  0  0  0
    1.8404    1.9056   -2.1011 h   0  0  0  0  0  0  0  0  0  0  0  0
    0.3433    2.7886   -1.8121 h   0  0  0  0  0  0  0  0  0  0  0  0
    1.8501    3.3341   -1.0711 h   0  0  0  0  0  0  0  0  0  0  0  0
  1  2  1  0  0  0  0
  2  3  1  0  0  0  0
  3  4  1  0  0  0  0
  4  5  1  0  0  0  0
  5  6  1  0  0  0  0
  1  7  1  0  0  0  0
  6  7  1  0  0  0  0
  1  8  1  0  0  0  0
  8  9  1  0  0  0  0
  7 10  1  0  0  0  0
  9 10  1  0  0  0  0
  6 11  1  0  0  0  0
 10 12  1  0  0  0  0
 11 12  1  0  0  0  0
  7 13  1  0  0  0  0
 10 14  1  0  0  0  0
  6 15  1  0  0  0  0
  5 16  1  0  0  0  0
 12 17  1  0  0  0  0
 12 18  1  0  0  0  0
  1 19  1  0  0  0  0
  2 20  1  0  0  0  0
  2 21  1  0  0  0  0
  3 22  1  0  0  0  0
  3 23  1  0  0  0  0
  4 24  1  0  0  0  0
  4 25  1  0  0  0  0
  5 26  1  0  0  0  0
  8 27  1  0  0  0  0
  8 28  1  0  0  0  0
  9 29  1  0  0  0  0
  9 30  1  0  0  0  0
 16 31  1  0  0  0  0
 16 32  1  0  0  0  0
 16 33  1  0  0  0  0
 17 34  1  0  0  0  0
 17 35  1  0  0  0  0
 17 36  1  0  0  0  0
 18 37  1  0  0  0  0
 18 38  1  0  0  0  0
 18 39  1  0  0  0  0
 19 40  1  0  0  0  0
 19 41  1  0  0  0  0
 19 42  1  0  0  0  0
M  END
