 xtb: 6.7.1 (edcfbbe)
          08092618203D

 35 36  0     0  0            999 V2000
   -0.0707   -0.7789   -0.3235 c   0  0  0  0  0  0  0  0  0  0  0  0
    0.5429    0.5273   -0.9075 c   0  0  0  0  0  0  0  0  0  0  0  0
   -0.4743    1.6862   -0.8030 c   0  0  0  0  0  0  0  0  0  0  0  0
   -1.2636    1.7467    0.5063 c   0  0  0  0  0  0  0  0  0  0  0  0
   -1.7795    0.3566    0.8890 c   0  0  0  0  0  0  0  0  0  0  0  0
   -0.5904   -0.5895    1.1171 c   0  0  0  0  0  0  0  0  0  0  0  0
   -1.3962   -1.0648   -1.0587 c   0  0  0  0  0  0  0  0  0  0  0  0
   -2.4418   -0.2813   -0.3035 c   0  0  0  0  0  0  0  0  0  0  0  0
    0.3614   -0.2055    2.0794 o   0  0  0  0  0  0  0  0  0  0  0  0
    0.8698   -1.9893   -0.3985 c   0  0  0  0  0  0  0  0  0  0  0  0
   -3.7157   -0.1710   -0.6333 c   0  0  0  0  0  0  0  0  0  0  0  0
    1.9274    0.9234   -0.4210 c   0  0  0  0  0  0  0  0  0  0  0  0
    2.1621    1.8176    0.5320 c   0  0  0  0  0  0  0  0  0  0  0  0
    0.6708    0.3208   -1.9777 h   0  0  0  0  0  0  0  0  0  0  0  0
    1.9592   -1.9313    0.4980 o   0  0  0  0  0  0  0  0  0  0  0  0
    3.0794    0.3322   -1.1813 c   0  0  0  0  0  0  0  0  0  0  0  0
    0.0504    2.6301   -0.9615 h   0  0  0  0  0  0  0  0  0  0  0  0
   -1.1958    1.5790   -1.6149 h   0  0  0  0  0  0  0  0  0  0  0  0
   -0.6652    2.1414    1.3290 h   0  0  0  0  0  0  0  0  0  0  0  0
   -2.1127    2.4205    0.3729 h   0  0  0  0  0  0  0  0  0  0  0  0
   -2.4345    0.4215    1.7599 h   0  0  0  0  0  0  0  0  0  0  0  0
   -0.9739   -1.5514    1.4846 h   0  0  0  0  0  0  0  0  0  0  0  0
   -1.3584   -0.7928   -2.1131 h   0  0  0  0  0  0  0  0  0  0  0  0
   -1.6325   -2.1305   -1.0063 h   0  0  0  0  0  0  0  0  0  0  0  0
    0.8354    0.5708    1.7415 h   0  0  0  0  0  0  0  0  0  0  0  0
    1.2970   -2.0911   -1.4002 h   0  0  0  0  0  0  0  0  0  0  0  0
    0.2824   -2.8964   -0.1852 h   0  0  0  0  0  0  0  0  0  0  0  0
   -4.1164   -0.6444   -1.5140 h   0  0  0  0  0  0  0  0  0  0  0  0
   -4.4085    0.3964   -0.0355 h   0  0  0  0  0  0  0  0  0  0  0  0
    3.1712    2.0892    0.7947 h   0  0  0  0  0  0  0  0  0  0  0  0
    1.3970    2.3464    1.0738 h   0  0  0  0  0  0  0  0  0  0  0  0
    1.6271   -1.5892    1.3439 h   0  0  0  0  0  0  0  0  0  0  0  0
    3.1852   -0.7259   -0.9557 h   0  0  0  0  0  0  0  0  0  0  0  0
    2.9229    0.4395   -2.2539 h   0  0  0  0  0  0  0  0  0  0  0  0
    4.0090    0.8279   -0.9131 h   0  0  0  0  0  0  0  0  0  0  0  0
  1  2  1  0  0  0  0
  2  3  1  0  0  0  0
  3  4  1  0  0  0  0
  4  5  1  0  0  0  0
  1  6  1  0  0  0  0
  5  6  1  0  0  0  0
  1  7  1  0  0  0  0
  5  8  1  0  0  0  0
  7  8  1  0  0  0  0
  6  9  1  0  0  0  0
  1 10  1  0  0  0  0
  8 11  2  0  0  0  0
  2 12  1  0  0  0  0
 12 13  2  0  0  0  0
  2 14  1  0  0  0  0
 10 15  1  0  0  0  0
 12 16  1  0  0  0  0
  3 17  1  0  0  0  0
  3 18  1  0  0  0  0
  4 19  1  0  0  0  0
  4 20  1  0  0  0  0
  5 21  1  0  0  0  0
  6 22  1  0  0  0  0
  7 23  1  0  0  0  0
  7 24  1  0  0  0  0
  9 25  1  0  0  0  0
 10 26  1  0  0  0  0
 10 27  1  0  0  0  0
 11 28  1  0  0  0  0
 11 29  1  0  0  0  0
 13 30  1  0  0  0  0
 13 31  1  0  0  0  0
 15 32  1  0  0  0  0
 16 33  1  0  0  0  0
 16 34  1  0  0  0  0
 16 35  1  0  0  0  0
M  END
