 xtb: 6.7.1 (edcfbbe)
          08092615283D

 35 36  0     0  0            999 V2000
    0.1459   -0.5959    0.3825 c   0  0  0  0  0  0  0  0  0  0  0  0
   -0.9189    0.4847    0.7180 c   0  0  0  0  0  0  0  0  0  0  0  0
   -0.3419    1.9068    0.5453 c   0  0  0  0  0  0  0  0  0  0  0  0
    0.5637    2.0943   -0.6714 c   0  0  0  0  0  0  0  0  0  0  0  0
    1.5325    0.9165   -0.8079 c   0  0  0  0  0  0  0  0  0  0  0  0
    0.7241   -0.3671   -1.0303 c   0  0  0  0  0  0  0  0  0  0  0  0
    1.3825   -0.3522    1.2738 c   0  0  0  0  0  0  0  0  0  0  0  0
    2.2129    0.6508    0.5117 c   0  0  0  0  0  0  0  0  0  0  0  0
    1.5288   -1.4301   -1.4944 o   0  0  0  0  0  0  0  0  0  0  0  0
   -0.4056   -2.0159    0.5779 c   0  0  0  0  0  0  0  0  0  0  0  0
    3.3451    1.1931    0.9222 c   0  0  0  0  0  0  0  0  0  0  0  0
   -2.2582    0.3166    0.0256 c   0  0  0  0  0  0  0  0  0  0  0  0
   -2.5116    0.6313   -1.2381 c   0  0  0  0  0  0  0  0  0  0  0  0
   -1.1257    0.3644    1.7886 h   0  0  0  0  0  0  0  0  0  0  0  0
   -1.3242   -2.4360   -0.4039 o   0  0  0  0  0  0  0  0  0  0  0  0
   -3.3661   -0.1629    0.9248 c   0  0  0  0  0  0  0  0  0  0  0  0
   -1.1690    2.6176    0.4966 h   0  0  0  0  0  0  0  0  0  0  0  0
    0.2422    2.1472    1.4358 h   0  0  0  0  0  0  0  0  0  0  0  0
   -0.0201    2.1832   -1.5878 h   0  0  0  0  0  0  0  0  0  0  0  0
    1.1296    3.0204   -0.5502 h   0  0  0  0  0  0  0  0  0  0  0  0
    2.2411    1.0968   -1.6195 h   0  0  0  0  0  0  0  0  0  0  0  0
   -0.0504   -0.2682   -1.7903 h   0  0  0  0  0  0  0  0  0  0  0  0
    1.9430   -1.2801    1.4159 h   0  0  0  0  0  0  0  0  0  0  0  0
    1.1129    0.0108    2.2658 h   0  0  0  0  0  0  0  0  0  0  0  0
    2.2781   -1.5257   -0.8922 h   0  0  0  0  0  0  0  0  0  0  0  0
   -0.8577   -2.0912    1.5797 h   0  0  0  0  0  0  0  0  0  0  0  0
    0.4110   -2.7412    0.5202 h   0  0  0  0  0  0  0  0  0  0  0  0
    3.7690    0.9629    1.8856 h   0  0  0  0  0  0  0  0  0  0  0  0
    3.8910    1.8933    0.3127 h   0  0  0  0  0  0  0  0  0  0  0  0
   -3.4994    0.5096   -1.6528 h   0  0  0  0  0  0  0  0  0  0  0  0
   -1.7732    1.0216   -1.9131 h   0  0  0  0  0  0  0  0  0  0  0  0
   -1.9705   -1.7273   -0.5419 h   0  0  0  0  0  0  0  0  0  0  0  0
   -4.2821   -0.3332    0.3642 h   0  0  0  0  0  0  0  0  0  0  0  0
   -3.0934   -1.0843    1.4371 h   0  0  0  0  0  0  0  0  0  0  0  0
   -3.5655    0.5896    1.6886 h   0  0  0  0  0  0  0  0  0  0  0  0
  1  2  1  0  0  0  0
  2  3  1  0  0  0  0
  3  4  1  0  0  0  0
  4  5  1  0  0  0  0
  1  6  1  0  0  0  0
  5  6  1  0  0  0  0
  1  7  1  0  0  0  0
  5  8  1  0  0  0  0
  7  8  1  0  0  0  0
  6  9  1  0  0  0  0
  1 10  1  0  0  0  0
  8 11  2  0  0  0  0
  2 12  1  0  0  0  0
 12 13  2  0  0  0  0
  2 14  1  0  0  0  0
 10 15  1  0  0  0  0
 12 16  1  0  0  0  0
  3 17  1  0  0  0  0
  3 18  1  0  0  0  0
  4 19  1  0  0  0  0
  4 20  1  0  0  0  0
  5 21  1  0  0  0  0
  6 22  1  0  0  0  0
  7 23  1  0  0  0  0
  7 24  1  0  0  0  0
  9 25  1  0  0  0  0
 10 26  1  0  0  0  0
 10 27  1  0  0  0  0
 11 28  1  0  0  0  0
 11 29  1  0  0  0  0
 13 30  1  0  0  0  0
 13 31  1  0  0  0  0
 15 32  1  0  0  0  0
 16 33  1  0  0  0  0
 16 34  1  0  0  0  0
 16 35  1  0  0  0  0
M  END
