 xtb: 6.7.1 (edcfbbe)
          08092615283D

 35 36  0     0  0            999 V2000
    0.0921   -0.6181    0.1115 c   0  0  0  0  0  0  0  0  0  0  0  0
   -0.9453    0.4001    0.6522 c   0  0  0  0  0  0  0  0  0  0  0  0
   -0.3358    1.8145    0.7398 c   0  0  0  0  0  0  0  0  0  0  0  0
    0.5673    2.2086   -0.4299 c   0  0  0  0  0  0  0  0  0  0  0  0
    1.4934    1.0523   -0.8186 c   0  0  0  0  0  0  0  0  0  0  0  0
    0.6351   -0.1407   -1.2505 c   0  0  0  0  0  0  0  0  0  0  0  0
    1.3563   -0.5773    0.9961 c   0  0  0  0  0  0  0  0  0  0  0  0
    2.2014    0.5235    0.4035 c   0  0  0  0  0  0  0  0  0  0  0  0
    1.3847   -1.1232   -1.9383 o   0  0  0  0  0  0  0  0  0  0  0  0
   -0.5019   -2.0283    0.0139 c   0  0  0  0  0  0  0  0  0  0  0  0
    3.3647    0.9430    0.8675 c   0  0  0  0  0  0  0  0  0  0  0  0
   -2.2787    0.3593   -0.0683 c   0  0  0  0  0  0  0  0  0  0  0  0
   -2.5433    0.9543   -1.2217 c   0  0  0  0  0  0  0  0  0  0  0  0
   -1.1618    0.0862    1.6803 h   0  0  0  0  0  0  0  0  0  0  0  0
   -0.9600   -2.5359    1.2508 o   0  0  0  0  0  0  0  0  0  0  0  0
   -3.3586   -0.3726    0.6765 c   0  0  0  0  0  0  0  0  0  0  0  0
   -1.1465    2.5393    0.8324 h   0  0  0  0  0  0  0  0  0  0  0  0
    0.2583    1.8732    1.6542 h   0  0  0  0  0  0  0  0  0  0  0  0
   -0.0210    2.4970   -1.3010 h   0  0  0  0  0  0  0  0  0  0  0  0
    1.1676    3.0727   -0.1371 h   0  0  0  0  0  0  0  0  0  0  0  0
    2.1847    1.3665   -1.6042 h   0  0  0  0  0  0  0  0  0  0  0  0
   -0.1648    0.1231   -1.9416 h   0  0  0  0  0  0  0  0  0  0  0  0
    1.8930   -1.5301    0.9449 h   0  0  0  0  0  0  0  0  0  0  0  0
    1.1270   -0.3848    2.0449 h   0  0  0  0  0  0  0  0  0  0  0  0
    2.1881   -1.2966   -1.4294 h   0  0  0  0  0  0  0  0  0  0  0  0
    0.2450   -2.7070   -0.4197 h   0  0  0  0  0  0  0  0  0  0  0  0
   -1.3692   -2.0191   -0.6493 h   0  0  0  0  0  0  0  0  0  0  0  0
    3.8076    0.5245    1.7562 h   0  0  0  0  0  0  0  0  0  0  0  0
    3.9187    1.7273    0.3800 h   0  0  0  0  0  0  0  0  0  0  0  0
   -3.5255    0.8944   -1.6623 h   0  0  0  0  0  0  0  0  0  0  0  0
   -1.8249    1.5287   -1.7766 h   0  0  0  0  0  0  0  0  0  0  0  0
   -0.2124   -2.5610    1.8618 h   0  0  0  0  0  0  0  0  0  0  0  0
   -4.2434   -0.5047    0.0590 h   0  0  0  0  0  0  0  0  0  0  0  0
   -3.0070   -1.3466    1.0100 h   0  0  0  0  0  0  0  0  0  0  0  0
   -3.6391    0.1974    1.5634 h   0  0  0  0  0  0  0  0  0  0  0  0
  1  2  1  0  0  0  0
  2  3  1  0  0  0  0
  3  4  1  0  0  0  0
  4  5  1  0  0  0  0
  1  6  1  0  0  0  0
  5  6  1  0  0  0  0
  1  7  1  0  0  0  0
  5  8  1  0  0  0  0
  7  8  1  0  0  0  0
  6  9  1  0  0  0  0
  1 10  1  0  0  0  0
  8 11  2  0  0  0  0
  2 12  1  0  0  0  0
 12 13  2  0  0  0  0
  2 14  1  0  0  0  0
 10 15  1  0  0  0  0
 12 16  1  0  0  0  0
  3 17  1  0  0  0  0
  3 18  1  0  0  0  0
  4 19  1  0  0  0  0
  4 20  1  0  0  0  0
  5 21  1  0  0  0  0
  6 22  1  0  0  0  0
  7 23  1  0  0  0  0
  7 24  1  0  0  0  0
  9 25  1  0  0  0  0
 10 26  1  0  0  0  0
 10 27  1  0  0  0  0
 11 28  1  0  0  0  0
 11 29  1  0  0  0  0
 13 30  1  0  0  0  0
 13 31  1  0  0  0  0
 15 32  1  0  0  0  0
 16 33  1  0  0  0  0
 16 34  1  0  0  0  0
 16 35  1  0  0  0  0
M  END
