 xtb: 6.7.1 (edcfbbe)
          08092617053D

 35 36  0     0  0            999 V2000
    0.1328   -0.5784    0.4103 c   0  0  0  0  0  0  0  0  0  0  0  0
   -0.9199    0.5165    0.7298 c   0  0  0  0  0  0  0  0  0  0  0  0
   -0.3268    1.9278    0.5241 c   0  0  0  0  0  0  0  0  0  0  0  0
    0.5888    2.0854   -0.6916 c   0  0  0  0  0  0  0  0  0  0  0  0
    1.5395    0.8901   -0.8085 c   0  0  0  0  0  0  0  0  0  0  0  0
    0.6973   -0.3692   -1.0096 c   0  0  0  0  0  0  0  0  0  0  0  0
    1.3811   -0.3507    1.2847 c   0  0  0  0  0  0  0  0  0  0  0  0
    2.2122    0.6431    0.5164 c   0  0  0  0  0  0  0  0  0  0  0  0
    1.5272   -1.4334   -1.4379 o   0  0  0  0  0  0  0  0  0  0  0  0
   -0.4350   -1.9932    0.5997 c   0  0  0  0  0  0  0  0  0  0  0  0
    3.3345    1.2025    0.9295 c   0  0  0  0  0  0  0  0  0  0  0  0
   -2.2573    0.3307    0.0379 c   0  0  0  0  0  0  0  0  0  0  0  0
   -2.5190    0.6603   -1.2202 c   0  0  0  0  0  0  0  0  0  0  0  0
   -1.1267    0.4221    1.8029 h   0  0  0  0  0  0  0  0  0  0  0  0
   -1.2197   -2.4381   -0.4890 o   0  0  0  0  0  0  0  0  0  0  0  0
   -3.3568   -0.1893    0.9246 c   0  0  0  0  0  0  0  0  0  0  0  0
   -1.1458    2.6469    0.4583 h   0  0  0  0  0  0  0  0  0  0  0  0
    0.2575    2.1777    1.4115 h   0  0  0  0  0  0  0  0  0  0  0  0
    0.0122    2.1757   -1.6127 h   0  0  0  0  0  0  0  0  0  0  0  0
    1.1702    3.0020   -0.5764 h   0  0  0  0  0  0  0  0  0  0  0  0
    2.2529    1.0327   -1.6214 h   0  0  0  0  0  0  0  0  0  0  0  0
   -0.0962   -0.2208   -1.7498 h   0  0  0  0  0  0  0  0  0  0  0  0
    1.9425   -1.2824    1.3843 h   0  0  0  0  0  0  0  0  0  0  0  0
    1.1346   -0.0017    2.2874 h   0  0  0  0  0  0  0  0  0  0  0  0
    0.9673   -2.2156   -1.5288 h   0  0  0  0  0  0  0  0  0  0  0  0
   -1.0068   -2.0448    1.5362 h   0  0  0  0  0  0  0  0  0  0  0  0
    0.3831   -2.7153    0.6720 h   0  0  0  0  0  0  0  0  0  0  0  0
    3.7520    0.9889    1.8993 h   0  0  0  0  0  0  0  0  0  0  0  0
    3.8836    1.8926    0.3118 h   0  0  0  0  0  0  0  0  0  0  0  0
   -3.5037    0.5217   -1.6376 h   0  0  0  0  0  0  0  0  0  0  0  0
   -1.7925    1.0876   -1.8859 h   0  0  0  0  0  0  0  0  0  0  0  0
   -1.9398   -1.8036   -0.6221 h   0  0  0  0  0  0  0  0  0  0  0  0
   -3.0711   -1.1143    1.4224 h   0  0  0  0  0  0  0  0  0  0  0  0
   -3.5720    0.5451    1.7016 h   0  0  0  0  0  0  0  0  0  0  0  0
   -4.2685   -0.3647    0.3582 h   0  0  0  0  0  0  0  0  0  0  0  0
  1  2  1  0  0  0  0
  2  3  1  0  0  0  0
  3  4  1  0  0  0  0
  4  5  1  0  0  0  0
  1  6  1  0  0  0  0
  5  6  1  0  0  0  0
  1  7  1  0  0  0  0
  5  8  1  0  0  0  0
  7  8  1  0  0  0  0
  6  9  1  0  0  0  0
  1 10  1  0  0  0  0
  8 11  2  0  0  0  0
  2 12  1  0  0  0  0
 12 13  2  0  0  0  0
  2 14  1  0  0  0  0
 10 15  1  0  0  0  0
 12 16  1  0  0  0  0
  3 17  1  0  0  0  0
  3 18  1  0  0  0  0
  4 19  1  0  0  0  0
  4 20  1  0  0  0  0
  5 21  1  0  0  0  0
  6 22  1  0  0  0  0
  7 23  1  0  0  0  0
  7 24  1  0  0  0  0
  9 25  1  0  0  0  0
 10 26  1  0  0  0  0
 10 27  1  0  0  0  0
 11 28  1  0  0  0  0
 11 29  1  0  0  0  0
 13 30  1  0  0  0  0
 13 31  1  0  0  0  0
 15 32  1  0  0  0  0
 16 33  1  0  0  0  0
 16 34  1  0  0  0  0
 16 35  1  0  0  0  0
M  END
