 xtb: 6.7.1 (edcfbbe)
          08092616283D

 35 36  0     0  0            999 V2000
    0.0950   -0.6240    0.1065 c   0  0  0  0  0  0  0  0  0  0  0  0
   -0.9363    0.3980    0.6534 c   0  0  0  0  0  0  0  0  0  0  0  0
   -0.3227    1.8109    0.7369 c   0  0  0  0  0  0  0  0  0  0  0  0
    0.5759    2.2042   -0.4371 c   0  0  0  0  0  0  0  0  0  0  0  0
    1.4975    1.0442   -0.8235 c   0  0  0  0  0  0  0  0  0  0  0  0
    0.6308   -0.1399   -1.2561 c   0  0  0  0  0  0  0  0  0  0  0  0
    1.3675   -0.5950    0.9770 c   0  0  0  0  0  0  0  0  0  0  0  0
    2.2010    0.5192    0.4001 c   0  0  0  0  0  0  0  0  0  0  0  0
    1.4567   -1.0894   -1.9125 o   0  0  0  0  0  0  0  0  0  0  0  0
   -0.5011   -2.0354    0.0252 c   0  0  0  0  0  0  0  0  0  0  0  0
    3.3477    0.9609    0.8829 c   0  0  0  0  0  0  0  0  0  0  0  0
   -2.2753    0.3617   -0.0581 c   0  0  0  0  0  0  0  0  0  0  0  0
   -2.5492    0.9646   -1.2056 c   0  0  0  0  0  0  0  0  0  0  0  0
   -1.1469    0.0857    1.6830 h   0  0  0  0  0  0  0  0  0  0  0  0
   -0.9808   -2.5174    1.2638 o   0  0  0  0  0  0  0  0  0  0  0  0
   -3.3520   -0.3726    0.6892 c   0  0  0  0  0  0  0  0  0  0  0  0
   -1.1310    2.5377    0.8363 h   0  0  0  0  0  0  0  0  0  0  0  0
    0.2785    1.8649    1.6466 h   0  0  0  0  0  0  0  0  0  0  0  0
   -0.0145    2.4959   -1.3060 h   0  0  0  0  0  0  0  0  0  0  0  0
    1.1804    3.0654   -0.1458 h   0  0  0  0  0  0  0  0  0  0  0  0
    2.1932    1.3413   -1.6100 h   0  0  0  0  0  0  0  0  0  0  0  0
   -0.1791    0.1599   -1.9272 h   0  0  0  0  0  0  0  0  0  0  0  0
    1.9130   -1.5370    0.8713 h   0  0  0  0  0  0  0  0  0  0  0  0
    1.1552   -0.4382    2.0352 h   0  0  0  0  0  0  0  0  0  0  0  0
    0.8979   -1.7644   -2.3137 h   0  0  0  0  0  0  0  0  0  0  0  0
    0.2600   -2.7262   -0.3647 h   0  0  0  0  0  0  0  0  0  0  0  0
   -1.3612   -2.0448   -0.6493 h   0  0  0  0  0  0  0  0  0  0  0  0
    3.7872    0.5458    1.7747 h   0  0  0  0  0  0  0  0  0  0  0  0
    3.8956    1.7539    0.4030 h   0  0  0  0  0  0  0  0  0  0  0  0
   -3.5354    0.9090   -1.6381 h   0  0  0  0  0  0  0  0  0  0  0  0
   -1.8360    1.5462   -1.7602 h   0  0  0  0  0  0  0  0  0  0  0  0
   -0.2461   -2.5147    1.8908 h   0  0  0  0  0  0  0  0  0  0  0  0
   -3.0008   -1.3481    1.0182 h   0  0  0  0  0  0  0  0  0  0  0  0
   -3.6259    0.1949    1.5795 h   0  0  0  0  0  0  0  0  0  0  0  0
   -4.2410   -0.5000    0.0766 h   0  0  0  0  0  0  0  0  0  0  0  0
  1  2  1  0  0  0  0
  2  3  1  0  0  0  0
  3  4  1  0  0  0  0
  4  5  1  0  0  0  0
  1  6  1  0  0  0  0
  5  6  1  0  0  0  0
  1  7  1  0  0  0  0
  5  8  1  0  0  0  0
  7  8  1  0  0  0  0
  6  9  1  0  0  0  0
  1 10  1  0  0  0  0
  8 11  2  0  0  0  0
  2 12  1  0  0  0  0
 12 13  2  0  0  0  0
  2 14  1  0  0  0  0
 10 15  1  0  0  0  0
 12 16  1  0  0  0  0
  3 17  1  0  0  0  0
  3 18  1  0  0  0  0
  4 19  1  0  0  0  0
  4 20  1  0  0  0  0
  5 21  1  0  0  0  0
  6 22  1  0  0  0  0
  7 23  1  0  0  0  0
  7 24  1  0  0  0  0
  9 25  1  0  0  0  0
 10 26  1  0  0  0  0
 10 27  1  0  0  0  0
 11 28  1  0  0  0  0
 11 29  1  0  0  0  0
 13 30  1  0  0  0  0
 13 31  1  0  0  0  0
 15 32  1  0  0  0  0
 16 33  1  0  0  0  0
 16 34  1  0  0  0  0
 16 35  1  0  0  0  0
M  END
