 xtb: 6.7.1 (edcfbbe)
          08092618203D

 35 36  0     0  0            999 V2000
   -0.0714   -0.7865   -0.3501 c   0  0  0  0  0  0  0  0  0  0  0  0
    0.5200    0.5239   -0.9469 c   0  0  0  0  0  0  0  0  0  0  0  0
   -0.4753    1.6888   -0.7814 c   0  0  0  0  0  0  0  0  0  0  0  0
   -1.1946    1.7176    0.5659 c   0  0  0  0  0  0  0  0  0  0  0  0
   -1.7525    0.3300    0.9028 c   0  0  0  0  0  0  0  0  0  0  0  0
   -0.5855   -0.6401    1.0987 c   0  0  0  0  0  0  0  0  0  0  0  0
   -1.4073   -1.0732   -1.0658 c   0  0  0  0  0  0  0  0  0  0  0  0
   -2.4318   -0.2681   -0.3018 c   0  0  0  0  0  0  0  0  0  0  0  0
    0.3423   -0.2252    2.0700 o   0  0  0  0  0  0  0  0  0  0  0  0
    0.9030   -1.9687   -0.4641 c   0  0  0  0  0  0  0  0  0  0  0  0
   -3.7007   -0.1149   -0.6334 c   0  0  0  0  0  0  0  0  0  0  0  0
    1.9336    0.8750   -0.5194 c   0  0  0  0  0  0  0  0  0  0  0  0
    2.9630    0.4399   -1.2416 c   0  0  0  0  0  0  0  0  0  0  0  0
    0.5950    0.3242   -2.0243 h   0  0  0  0  0  0  0  0  0  0  0  0
    1.9548   -1.9232    0.4814 o   0  0  0  0  0  0  0  0  0  0  0  0
    2.1677    1.7631    0.6635 c   0  0  0  0  0  0  0  0  0  0  0  0
    0.0434    2.6339   -0.9483 h   0  0  0  0  0  0  0  0  0  0  0  0
   -1.2338    1.6001   -1.5620 h   0  0  0  0  0  0  0  0  0  0  0  0
   -0.5244    2.0197    1.3693 h   0  0  0  0  0  0  0  0  0  0  0  0
   -2.0139    2.4372    0.5151 h   0  0  0  0  0  0  0  0  0  0  0  0
   -2.3994    0.3856    1.7796 h   0  0  0  0  0  0  0  0  0  0  0  0
   -0.9896   -1.6219    1.4031 h   0  0  0  0  0  0  0  0  0  0  0  0
   -1.3833   -0.8137   -2.1239 h   0  0  0  0  0  0  0  0  0  0  0  0
   -1.6516   -2.1362   -0.9945 h   0  0  0  0  0  0  0  0  0  0  0  0
    1.0771   -0.8582    2.0247 h   0  0  0  0  0  0  0  0  0  0  0  0
    1.3067   -2.0321   -1.4821 h   0  0  0  0  0  0  0  0  0  0  0  0
    0.3708   -2.9000   -0.2481 h   0  0  0  0  0  0  0  0  0  0  0  0
   -4.1133   -0.5630   -1.5221 h   0  0  0  0  0  0  0  0  0  0  0  0
   -4.3772    0.4650   -0.0291 h   0  0  0  0  0  0  0  0  0  0  0  0
    3.9810    0.6795   -0.9797 h   0  0  0  0  0  0  0  0  0  0  0  0
    2.8383   -0.1615   -2.1279 h   0  0  0  0  0  0  0  0  0  0  0  0
    2.5308   -1.1776    0.2390 h   0  0  0  0  0  0  0  0  0  0  0  0
    1.6388    1.3963    1.5382 h   0  0  0  0  0  0  0  0  0  0  0  0
    3.2303    1.8220    0.8886 h   0  0  0  0  0  0  0  0  0  0  0  0
    1.8104    2.7702    0.4535 h   0  0  0  0  0  0  0  0  0  0  0  0
  1  2  1  0  0  0  0
  2  3  1  0  0  0  0
  3  4  1  0  0  0  0
  4  5  1  0  0  0  0
  1  6  1  0  0  0  0
  5  6  1  0  0  0  0
  1  7  1  0  0  0  0
  5  8  1  0  0  0  0
  7  8  1  0  0  0  0
  6  9  1  0  0  0  0
  1 10  1  0  0  0  0
  8 11  2  0  0  0  0
  2 12  1  0  0  0  0
 12 13  2  0  0  0  0
  2 14  1  0  0  0  0
 10 15  1  0  0  0  0
 12 16  1  0  0  0  0
  3 17  1  0  0  0  0
  3 18  1  0  0  0  0
  4 19  1  0  0  0  0
  4 20  1  0  0  0  0
  5 21  1  0  0  0  0
  6 22  1  0  0  0  0
  7 23  1  0  0  0  0
  7 24  1  0  0  0  0
  9 25  1  0  0  0  0
 10 26  1  0  0  0  0
 10 27  1  0  0  0  0
 11 28  1  0  0  0  0
 11 29  1  0  0  0  0
 13 30  1  0  0  0  0
 13 31  1  0  0  0  0
 15 32  1  0  0  0  0
 16 33  1  0  0  0  0
 16 34  1  0  0  0  0
 16 35  1  0  0  0  0
M  END
