 xtb: 6.7.1 (edcfbbe)
          08092612213D

 54 57  0     0  0            999 V2000
   -1.6952   -0.9812    2.2980 c   0  0  0  0  0  0  0  0  0  0  0  0
   -2.0874   -1.7576    1.0530 c   0  0  0  0  0  0  0  0  0  0  0  0
   -2.6103   -0.8044   -0.0363 c   0  0  0  0  0  0  0  0  0  0  0  0
   -1.6931    0.4823   -0.1547 c   0  0  0  0  0  0  0  0  0  0  0  0
   -0.2993    0.3327    0.5379 c   0  0  0  0  0  0  0  0  0  0  0  0
   -0.4867   -0.0794    2.0271 c   0  0  0  0  0  0  0  0  0  0  0  0
   -1.4367    0.8293   -1.6319 c   0  0  0  0  0  0  0  0  0  0  0  0
   -0.6120    2.1019   -1.7947 c   0  0  0  0  0  0  0  0  0  0  0  0
    0.7227    2.0280   -1.0502 c   0  0  0  0  0  0  0  0  0  0  0  0
    0.5512    1.6720    0.4519 c   0  0  0  0  0  0  0  0  0  0  0  0
    0.7734   -0.6532   -0.0179 c   0  0  0  0  0  0  0  0  0  0  0  0
    1.9091    1.1915    0.9960 c   0  0  0  0  0  0  0  0  0  0  0  0
    2.0218   -0.1848    0.4292 c   0  0  0  0  0  0  0  0  0  0  0  0
    3.2122   -0.8709    0.2896 c   0  0  0  0  0  0  0  0  0  0  0  0
    3.1954   -2.0977   -0.3634 c   0  0  0  0  0  0  0  0  0  0  0  0
    2.0060   -2.5444   -0.8769 c   0  0  0  0  0  0  0  0  0  0  0  0
    0.7948   -1.8498   -0.7361 c   0  0  0  0  0  0  0  0  0  0  0  0
   -0.2281   -2.4781   -1.3656 o   0  0  0  0  0  0  0  0  0  0  0  0
    4.4035   -0.3890    0.7633 o   0  0  0  0  0  0  0  0  0  0  0  0
   -2.6118   -1.4545   -1.3132 o   0  0  0  0  0  0  0  0  0  0  0  0
   -4.0973   -0.5284    0.2549 c   0  0  0  0  0  0  0  0  0  0  0  0
   -2.4717    1.6509    0.4718 c   0  0  0  0  0  0  0  0  0  0  0  0
    1.5026    3.3209   -1.2992 c   0  0  0  0  0  0  0  0  0  0  0  0
    0.1583    2.9110    1.2702 c   0  0  0  0  0  0  0  0  0  0  0  0
   -2.5485   -0.3947    2.6428 h   0  0  0  0  0  0  0  0  0  0  0  0
   -1.4482   -1.6811    3.0984 h   0  0  0  0  0  0  0  0  0  0  0  0
   -2.8640   -2.4878    1.2972 h   0  0  0  0  0  0  0  0  0  0  0  0
   -1.2197   -2.3121    0.7018 h   0  0  0  0  0  0  0  0  0  0  0  0
    0.4102   -0.6109    2.3462 h   0  0  0  0  0  0  0  0  0  0  0  0
   -0.5741    0.8055    2.6557 h   0  0  0  0  0  0  0  0  0  0  0  0
   -0.8963    0.0170   -2.1165 h   0  0  0  0  0  0  0  0  0  0  0  0
   -2.3903    0.9423   -2.1502 h   0  0  0  0  0  0  0  0  0  0  0  0
   -0.4032    2.2395   -2.8586 h   0  0  0  0  0  0  0  0  0  0  0  0
   -1.1787    2.9767   -1.4740 h   0  0  0  0  0  0  0  0  0  0  0  0
    1.2954    1.2103   -1.5010 h   0  0  0  0  0  0  0  0  0  0  0  0
    1.9012    1.1896    2.0899 h   0  0  0  0  0  0  0  0  0  0  0  0
    2.7234    1.8416    0.6679 h   0  0  0  0  0  0  0  0  0  0  0  0
    4.1091   -2.6565   -0.4786 h   0  0  0  0  0  0  0  0  0  0  0  0
    1.9575   -3.4716   -1.4259 h   0  0  0  0  0  0  0  0  0  0  0  0
   -1.0489   -1.9447   -1.3914 h   0  0  0  0  0  0  0  0  0  0  0  0
    4.2534    0.4596    1.1944 h   0  0  0  0  0  0  0  0  0  0  0  0
   -3.1569   -2.2473   -1.2507 h   0  0  0  0  0  0  0  0  0  0  0  0
   -4.2643   -0.0483    1.2113 h   0  0  0  0  0  0  0  0  0  0  0  0
   -4.5374    0.0724   -0.5365 h   0  0  0  0  0  0  0  0  0  0  0  0
   -4.6219   -1.4850    0.2693 h   0  0  0  0  0  0  0  0  0  0  0  0
   -2.6643    1.4918    1.5267 h   0  0  0  0  0  0  0  0  0  0  0  0
   -1.9358    2.5769    0.3681 h   0  0  0  0  0  0  0  0  0  0  0  0
   -3.4181    1.7830   -0.0424 h   0  0  0  0  0  0  0  0  0  0  0  0
    0.9383    4.1968   -0.9891 h   0  0  0  0  0  0  0  0  0  0  0  0
    2.4566    3.3275   -0.7794 h   0  0  0  0  0  0  0  0  0  0  0  0
    1.7061    3.4163   -2.3638 h   0  0  0  0  0  0  0  0  0  0  0  0
   -0.3995    2.6635    2.1680 h   0  0  0  0  0  0  0  0  0  0  0  0
    1.0687    3.4194    1.5851 h   0  0  0  0  0  0  0  0  0  0  0  0
   -0.4159    3.6341    0.6998 h   0  0  0  0  0  0  0  0  0  0  0  0
  1  2  1  0  0  0  0
  2  3  1  0  0  0  0
  3  4  1  0  0  0  0
  4  5  1  0  0  0  0
  1  6  1  0  0  0  0
  5  6  1  0  0  0  0
  4  7  1  0  0  0  0
  7  8  1  0  0  0  0
  8  9  1  0  0  0  0
  5 10  1  0  0  0  0
  9 10  1  0  0  0  0
  5 11  1  0  0  0  0
 10 12  1  0  0  0  0
 11 13  4  0  0  0  0
 12 13  1  0  0  0  0
 13 14  4  0  0  0  0
 14 15  4  0  0  0  0
 15 16  4  0  0  0  0
 11 17  4  0  0  0  0
 16 17  4  0  0  0  0
 17 18  1  0  0  0  0
 14 19  1  0  0  0  0
  3 20  1  0  0  0  0
  3 21  1  0  0  0  0
  4 22  1  0  0  0  0
  9 23  1  0  0  0  0
 10 24  1  0  0  0  0
  1 25  1  0  0  0  0
  1 26  1  0  0  0  0
  2 27  1  0  0  0  0
  2 28  1  0  0  0  0
  6 29  1  0  0  0  0
  6 30  1  0  0  0  0
  7 31  1  0  0  0  0
  7 32  1  0  0  0  0
  8 33  1  0  0  0  0
  8 34  1  0  0  0  0
  9 35  1  0  0  0  0
 12 36  1  0  0  0  0
 12 37  1  0  0  0  0
 15 38  1  0  0  0  0
 16 39  1  0  0  0  0
 18 40  1  0  0  0  0
 19 41  1  0  0  0  0
 20 42  1  0  0  0  0
 21 43  1  0  0  0  0
 21 44  1  0  0  0  0
 21 45  1  0  0  0  0
 22 46  1  0  0  0  0
 22 47  1  0  0  0  0
 22 48  1  0  0  0  0
 23 49  1  0  0  0  0
 23 50  1  0  0  0  0
 23 51  1  0  0  0  0
 24 52  1  0  0  0  0
 24 53  1  0  0  0  0
 24 54  1  0  0  0  0
M  END
