 xtb: 6.7.1 (edcfbbe)
          08092617483D

 35 36  0     0  0            999 V2000
   -0.0703   -0.7782   -0.3246 c   0  0  0  0  0  0  0  0  0  0  0  0
    0.5428    0.5284   -0.9081 c   0  0  0  0  0  0  0  0  0  0  0  0
   -0.4750    1.6867   -0.8034 c   0  0  0  0  0  0  0  0  0  0  0  0
   -1.2641    1.7466    0.5061 c   0  0  0  0  0  0  0  0  0  0  0  0
   -1.7790    0.3562    0.8891 c   0  0  0  0  0  0  0  0  0  0  0  0
   -0.5894   -0.5894    1.1164 c   0  0  0  0  0  0  0  0  0  0  0  0
   -1.3961   -1.0640   -1.0595 c   0  0  0  0  0  0  0  0  0  0  0  0
   -2.4419   -0.2823   -0.3028 c   0  0  0  0  0  0  0  0  0  0  0  0
    0.3627   -0.2051    2.0783 o   0  0  0  0  0  0  0  0  0  0  0  0
    0.8703   -1.9885   -0.4005 c   0  0  0  0  0  0  0  0  0  0  0  0
   -3.7165   -0.1746   -0.6303 c   0  0  0  0  0  0  0  0  0  0  0  0
    1.9272    0.9248   -0.4213 c   0  0  0  0  0  0  0  0  0  0  0  0
    2.1611    1.8200    0.5309 c   0  0  0  0  0  0  0  0  0  0  0  0
    0.6709    0.3223   -1.9785 h   0  0  0  0  0  0  0  0  0  0  0  0
    1.9586   -1.9325    0.4977 o   0  0  0  0  0  0  0  0  0  0  0  0
    3.0800    0.3316   -1.1789 c   0  0  0  0  0  0  0  0  0  0  0  0
    0.0492    2.6309   -0.9618 h   0  0  0  0  0  0  0  0  0  0  0  0
   -1.1965    1.5793   -1.6151 h   0  0  0  0  0  0  0  0  0  0  0  0
   -0.6657    2.1416    1.3287 h   0  0  0  0  0  0  0  0  0  0  0  0
   -2.1135    2.4198    0.3729 h   0  0  0  0  0  0  0  0  0  0  0  0
   -2.4333    0.4209    1.7605 h   0  0  0  0  0  0  0  0  0  0  0  0
   -0.9723   -1.5516    1.4837 h   0  0  0  0  0  0  0  0  0  0  0  0
   -1.3589   -0.7902   -2.1135 h   0  0  0  0  0  0  0  0  0  0  0  0
   -1.6317   -2.1299   -1.0088 h   0  0  0  0  0  0  0  0  0  0  0  0
    0.8363    0.5713    1.7403 h   0  0  0  0  0  0  0  0  0  0  0  0
    1.2990   -2.0885   -1.4017 h   0  0  0  0  0  0  0  0  0  0  0  0
    0.2826   -2.8960   -0.1896 h   0  0  0  0  0  0  0  0  0  0  0  0
   -4.1177   -0.6486   -1.5105 h   0  0  0  0  0  0  0  0  0  0  0  0
   -4.4094    0.3915   -0.0314 h   0  0  0  0  0  0  0  0  0  0  0  0
    3.1701    2.0917    0.7943 h   0  0  0  0  0  0  0  0  0  0  0  0
    1.3956    2.3492    1.0717 h   0  0  0  0  0  0  0  0  0  0  0  0
    1.6258   -1.5901    1.3433 h   0  0  0  0  0  0  0  0  0  0  0  0
    3.1909   -0.7239   -0.9432 h   0  0  0  0  0  0  0  0  0  0  0  0
    2.9209    0.4276   -2.2521 h   0  0  0  0  0  0  0  0  0  0  0  0
    4.0079    0.8338   -0.9174 h   0  0  0  0  0  0  0  0  0  0  0  0
  1  2  1  0  0  0  0
  2  3  1  0  0  0  0
  3  4  1  0  0  0  0
  4  5  1  0  0  0  0
  1  6  1  0  0  0  0
  5  6  1  0  0  0  0
  1  7  1  0  0  0  0
  5  8  1  0  0  0  0
  7  8  1  0  0  0  0
  6  9  1  0  0  0  0
  1 10  1  0  0  0  0
  8 11  2  0  0  0  0
  2 12  1  0  0  0  0
 12 13  2  0  0  0  0
  2 14  1  0  0  0  0
 10 15  1  0  0  0  0
 12 16  1  0  0  0  0
  3 17  1  0  0  0  0
  3 18  1  0  0  0  0
  4 19  1  0  0  0  0
  4 20  1  0  0  0  0
  5 21  1  0  0  0  0
  6 22  1  0  0  0  0
  7 23  1  0  0  0  0
  7 24  1  0  0  0  0
  9 25  1  0  0  0  0
 10 26  1  0  0  0  0
 10 27  1  0  0  0  0
 11 28  1  0  0  0  0
 11 29  1  0  0  0  0
 13 30  1  0  0  0  0
 13 31  1  0  0  0  0
 15 32  1  0  0  0  0
 16 33  1  0  0  0  0
 16 34  1  0  0  0  0
 16 35  1  0  0  0  0
M  END
