 xtb: 6.7.1 (edcfbbe)
          08092617053D

 35 36  0     0  0            999 V2000
    0.0829   -0.6193    0.1008 c   0  0  0  0  0  0  0  0  0  0  0  0
   -0.9475    0.4022    0.6525 c   0  0  0  0  0  0  0  0  0  0  0  0
   -0.3253    1.8126    0.7423 c   0  0  0  0  0  0  0  0  0  0  0  0
    0.5736    2.2061   -0.4303 c   0  0  0  0  0  0  0  0  0  0  0  0
    1.4940    1.0453   -0.8189 c   0  0  0  0  0  0  0  0  0  0  0  0
    0.6258   -0.1388   -1.2546 c   0  0  0  0  0  0  0  0  0  0  0  0
    1.3528   -0.5978    0.9741 c   0  0  0  0  0  0  0  0  0  0  0  0
    2.1939    0.5119    0.4056 c   0  0  0  0  0  0  0  0  0  0  0  0
    1.3836   -1.1753   -1.8580 o   0  0  0  0  0  0  0  0  0  0  0  0
   -0.5039   -2.0320   -0.0025 c   0  0  0  0  0  0  0  0  0  0  0  0
    3.3462    0.9449    0.8839 c   0  0  0  0  0  0  0  0  0  0  0  0
   -2.2912    0.3904   -0.0533 c   0  0  0  0  0  0  0  0  0  0  0  0
   -2.5536    1.0051   -1.1972 c   0  0  0  0  0  0  0  0  0  0  0  0
   -1.1482    0.0993    1.6877 h   0  0  0  0  0  0  0  0  0  0  0  0
   -0.7924   -2.6191    1.2478 o   0  0  0  0  0  0  0  0  0  0  0  0
   -3.3935   -0.3224    0.6823 c   0  0  0  0  0  0  0  0  0  0  0  0
   -1.1284    2.5447    0.8470 h   0  0  0  0  0  0  0  0  0  0  0  0
    0.2787    1.8568    1.6506 h   0  0  0  0  0  0  0  0  0  0  0  0
   -0.0162    2.5006   -1.2989 h   0  0  0  0  0  0  0  0  0  0  0  0
    1.1784    3.0664   -0.1364 h   0  0  0  0  0  0  0  0  0  0  0  0
    2.1939    1.3613   -1.5974 h   0  0  0  0  0  0  0  0  0  0  0  0
   -0.1796    0.1538   -1.9381 h   0  0  0  0  0  0  0  0  0  0  0  0
    1.8768   -1.5501    0.8678 h   0  0  0  0  0  0  0  0  0  0  0  0
    1.1358   -0.4580    2.0328 h   0  0  0  0  0  0  0  0  0  0  0  0
    1.8858   -0.7923   -2.5882 h   0  0  0  0  0  0  0  0  0  0  0  0
    0.2321   -2.6880   -0.4713 h   0  0  0  0  0  0  0  0  0  0  0  0
   -1.3978   -2.0131   -0.6411 h   0  0  0  0  0  0  0  0  0  0  0  0
    3.7844    0.5241    1.7733 h   0  0  0  0  0  0  0  0  0  0  0  0
    3.8982    1.7367    0.4056 h   0  0  0  0  0  0  0  0  0  0  0  0
   -3.5407    0.9752   -1.6295 h   0  0  0  0  0  0  0  0  0  0  0  0
   -1.8254    1.5652   -1.7533 h   0  0  0  0  0  0  0  0  0  0  0  0
   -1.3863   -2.0271    1.7290 h   0  0  0  0  0  0  0  0  0  0  0  0
   -3.4943    0.0804    1.6902 h   0  0  0  0  0  0  0  0  0  0  0  0
   -4.3426   -0.1993    0.1665 h   0  0  0  0  0  0  0  0  0  0  0  0
   -3.1927   -1.3896    0.7654 h   0  0  0  0  0  0  0  0  0  0  0  0
  1  2  1  0  0  0  0
  2  3  1  0  0  0  0
  3  4  1  0  0  0  0
  4  5  1  0  0  0  0
  1  6  1  0  0  0  0
  5  6  1  0  0  0  0
  1  7  1  0  0  0  0
  5  8  1  0  0  0  0
  7  8  1  0  0  0  0
  6  9  1  0  0  0  0
  1 10  1  0  0  0  0
  8 11  2  0  0  0  0
  2 12  1  0  0  0  0
 12 13  2  0  0  0  0
  2 14  1  0  0  0  0
 10 15  1  0  0  0  0
 12 16  1  0  0  0  0
  3 17  1  0  0  0  0
  3 18  1  0  0  0  0
  4 19  1  0  0  0  0
  4 20  1  0  0  0  0
  5 21  1  0  0  0  0
  6 22  1  0  0  0  0
  7 23  1  0  0  0  0
  7 24  1  0  0  0  0
  9 25  1  0  0  0  0
 10 26  1  0  0  0  0
 10 27  1  0  0  0  0
 11 28  1  0  0  0  0
 11 29  1  0  0  0  0
 13 30  1  0  0  0  0
 13 31  1  0  0  0  0
 15 32  1  0  0  0  0
 16 33  1  0  0  0  0
 16 34  1  0  0  0  0
 16 35  1  0  0  0  0
M  END
