 xtb: 6.7.1 (edcfbbe)
          08092617483D

 35 36  0     0  0            999 V2000
   -0.0727   -0.7897   -0.2818 c   0  0  0  0  0  0  0  0  0  0  0  0
    0.5213    0.5019   -0.9056 c   0  0  0  0  0  0  0  0  0  0  0  0
   -0.4608    1.6862   -0.7694 c   0  0  0  0  0  0  0  0  0  0  0  0
   -1.2361    1.7293    0.5453 c   0  0  0  0  0  0  0  0  0  0  0  0
   -1.8017    0.3464    0.8828 c   0  0  0  0  0  0  0  0  0  0  0  0
   -0.6286   -0.5999    1.1488 c   0  0  0  0  0  0  0  0  0  0  0  0
   -1.3820   -1.1155   -1.0262 c   0  0  0  0  0  0  0  0  0  0  0  0
   -2.4302   -0.2777   -0.3343 c   0  0  0  0  0  0  0  0  0  0  0  0
    0.2497   -0.1247    2.1268 o   0  0  0  0  0  0  0  0  0  0  0  0
    0.9254   -1.9544   -0.3280 c   0  0  0  0  0  0  0  0  0  0  0  0
   -3.6778   -0.1157   -0.7336 c   0  0  0  0  0  0  0  0  0  0  0  0
    1.9301    0.8733   -0.4799 c   0  0  0  0  0  0  0  0  0  0  0  0
    2.2463    1.4694    0.6610 c   0  0  0  0  0  0  0  0  0  0  0  0
    0.5960    0.2854   -1.9799 h   0  0  0  0  0  0  0  0  0  0  0  0
    1.9588   -1.8442    0.6234 o   0  0  0  0  0  0  0  0  0  0  0  0
    2.9835    0.6128   -1.5243 c   0  0  0  0  0  0  0  0  0  0  0  0
    0.0930    2.6184   -0.8983 h   0  0  0  0  0  0  0  0  0  0  0  0
   -1.1870    1.6206   -1.5828 h   0  0  0  0  0  0  0  0  0  0  0  0
   -0.5979    2.0435    1.3698 h   0  0  0  0  0  0  0  0  0  0  0  0
   -2.0515    2.4488    0.4505 h   0  0  0  0  0  0  0  0  0  0  0  0
   -2.4836    0.4154    1.7312 h   0  0  0  0  0  0  0  0  0  0  0  0
   -1.0290   -1.5790    1.4697 h   0  0  0  0  0  0  0  0  0  0  0  0
   -1.3262   -0.9072   -2.0950 h   0  0  0  0  0  0  0  0  0  0  0  0
   -1.6267   -2.1752   -0.9117 h   0  0  0  0  0  0  0  0  0  0  0  0
    0.9947   -0.7416    2.1553 h   0  0  0  0  0  0  0  0  0  0  0  0
    1.3387   -2.0584   -1.3423 h   0  0  0  0  0  0  0  0  0  0  0  0
    0.4101   -2.8871   -0.0794 h   0  0  0  0  0  0  0  0  0  0  0  0
   -4.0534   -0.5825   -1.6288 h   0  0  0  0  0  0  0  0  0  0  0  0
   -4.3740    0.4904   -0.1799 h   0  0  0  0  0  0  0  0  0  0  0  0
    3.2660    1.7432    0.8810 h   0  0  0  0  0  0  0  0  0  0  0  0
    1.5223    1.6881    1.4222 h   0  0  0  0  0  0  0  0  0  0  0  0
    2.4486   -1.0283    0.4430 h   0  0  0  0  0  0  0  0  0  0  0  0
    3.9776    0.8354   -1.1432 h   0  0  0  0  0  0  0  0  0  0  0  0
    2.9642   -0.4215   -1.8668 h   0  0  0  0  0  0  0  0  0  0  0  0
    2.8015    1.2461   -2.3934 h   0  0  0  0  0  0  0  0  0  0  0  0
  1  2  1  0  0  0  0
  2  3  1  0  0  0  0
  3  4  1  0  0  0  0
  4  5  1  0  0  0  0
  1  6  1  0  0  0  0
  5  6  1  0  0  0  0
  1  7  1  0  0  0  0
  5  8  1  0  0  0  0
  7  8  1  0  0  0  0
  6  9  1  0  0  0  0
  1 10  1  0  0  0  0
  8 11  2  0  0  0  0
  2 12  1  0  0  0  0
 12 13  2  0  0  0  0
  2 14  1  0  0  0  0
 10 15  1  0  0  0  0
 12 16  1  0  0  0  0
  3 17  1  0  0  0  0
  3 18  1  0  0  0  0
  4 19  1  0  0  0  0
  4 20  1  0  0  0  0
  5 21  1  0  0  0  0
  6 22  1  0  0  0  0
  7 23  1  0  0  0  0
  7 24  1  0  0  0  0
  9 25  1  0  0  0  0
 10 26  1  0  0  0  0
 10 27  1  0  0  0  0
 11 28  1  0  0  0  0
 11 29  1  0  0  0  0
 13 30  1  0  0  0  0
 13 31  1  0  0  0  0
 15 32  1  0  0  0  0
 16 33  1  0  0  0  0
 16 34  1  0  0  0  0
 16 35  1  0  0  0  0
M  END
