 xtb: 6.7.1 (edcfbbe)
          08092621573D

 50 55  0     0  0            999 V2000
   -0.4363   -0.5627   -2.7129 c   0  0  0  0  0  0  0  0  0  0  0  0
    0.7035    0.4281   -2.4591 c   0  0  0  0  0  0  0  0  0  0  0  0
   -2.4533    3.3098    0.5559 c   0  0  0  0  0  0  0  0  0  0  0  0
   -3.5338    2.8644   -0.1877 c   0  0  0  0  0  0  0  0  0  0  0  0
   -3.4955    1.6087   -0.7525 c   0  0  0  0  0  0  0  0  0  0  0  0
   -2.3877    0.7741   -0.5782 c   0  0  0  0  0  0  0  0  0  0  0  0
   -1.3077    1.1989    0.2047 c   0  0  0  0  0  0  0  0  0  0  0  0
   -1.3658    2.4767    0.7483 c   0  0  0  0  0  0  0  0  0  0  0  0
   -2.3860   -0.4732   -1.1456 n   0  0  0  0  0  0  0  0  0  0  0  0
   -1.1401   -1.1195   -1.4461 c   0  0  0  0  0  0  0  0  0  0  0  0
   -0.2047   -1.1001   -0.2098 c   0  0  0  0  0  0  0  0  0  0  0  0
   -0.1237    0.2953    0.4914 c   0  0  0  0  0  0  0  0  0  0  0  0
    1.2037   -1.3712   -0.7694 c   0  0  0  0  0  0  0  0  0  0  0  0
    1.5924    0.0351   -1.2568 c   0  0  0  0  0  0  0  0  0  0  0  0
    1.1909    0.8629   -0.0538 c   0  0  0  0  0  0  0  0  0  0  0  0
    3.0498    0.2880   -1.5143 c   0  0  0  0  0  0  0  0  0  0  0  0
    3.8066    1.0259   -0.7122 c   0  0  0  0  0  0  0  0  0  0  0  0
    3.3436    1.5910    0.6066 c   0  0  0  0  0  0  0  0  0  0  0  0
    2.2116    0.7520    1.0498 n   0  0  0  0  0  0  0  0  0  0  0  0
    1.3968    1.1642    2.2110 c   0  0  0  0  0  0  0  0  0  0  0  0
    0.1619    0.2734    2.0215 c   0  0  0  0  0  0  0  0  0  0  0  0
    2.7103   -0.4725    1.3279 o   0  0  0  0  0  0  0  0  0  0  0  0
    1.1145    1.9262   -0.2850 h   0  0  0  0  0  0  0  0  0  0  0  0
   -0.7306   -2.1812    0.7082 c   0  0  0  0  0  0  0  0  0  0  0  0
   -1.5961   -2.0288    1.5412 o   0  0  0  0  0  0  0  0  0  0  0  0
   -0.1808   -3.3630    0.4408 o   0  0  0  0  0  0  0  0  0  0  0  0
   -0.6340   -4.4782    1.2083 c   0  0  0  0  0  0  0  0  0  0  0  0
   -0.0465   -1.4070   -3.2820 h   0  0  0  0  0  0  0  0  0  0  0  0
   -1.1907   -0.0776   -3.3359 h   0  0  0  0  0  0  0  0  0  0  0  0
    1.3138    0.4837   -3.3626 h   0  0  0  0  0  0  0  0  0  0  0  0
    0.2906    1.4235   -2.2855 h   0  0  0  0  0  0  0  0  0  0  0  0
   -2.4597    4.2968    0.9932 h   0  0  0  0  0  0  0  0  0  0  0  0
   -4.3963    3.4979   -0.3337 h   0  0  0  0  0  0  0  0  0  0  0  0
   -4.3271    1.2495   -1.3425 h   0  0  0  0  0  0  0  0  0  0  0  0
   -0.5484    2.8429    1.3477 h   0  0  0  0  0  0  0  0  0  0  0  0
   -3.1371   -0.6538   -1.7951 h   0  0  0  0  0  0  0  0  0  0  0  0
   -1.3799   -2.1719   -1.6484 h   0  0  0  0  0  0  0  0  0  0  0  0
    1.8858   -1.6709    0.0258 h   0  0  0  0  0  0  0  0  0  0  0  0
    1.2045   -2.1279   -1.5477 h   0  0  0  0  0  0  0  0  0  0  0  0
    3.4661   -0.1417   -2.4136 h   0  0  0  0  0  0  0  0  0  0  0  0
    4.8451    1.2044   -0.9484 h   0  0  0  0  0  0  0  0  0  0  0  0
    3.0493    2.6417    0.5272 h   0  0  0  0  0  0  0  0  0  0  0  0
    4.1386    1.4878    1.3482 h   0  0  0  0  0  0  0  0  0  0  0  0
    1.9416    0.9272    3.1237 h   0  0  0  0  0  0  0  0  0  0  0  0
    1.1744    2.2295    2.1661 h   0  0  0  0  0  0  0  0  0  0  0  0
   -0.6943    0.6091    2.6011 h   0  0  0  0  0  0  0  0  0  0  0  0
    0.4304   -0.7323    2.3416 h   0  0  0  0  0  0  0  0  0  0  0  0
   -0.1958   -5.3566    0.7428 h   0  0  0  0  0  0  0  0  0  0  0  0
   -0.2967   -4.3818    2.2415 h   0  0  0  0  0  0  0  0  0  0  0  0
   -1.7244   -4.5263    1.1938 h   0  0  0  0  0  0  0  0  0  0  0  0
  1  2  1  0  0  0  0
  3  4  4  0  0  0  0
  4  5  4  0  0  0  0
  5  6  4  0  0  0  0
  6  7  4  0  0  0  0
  3  8  4  0  0  0  0
  7  8  4  0  0  0  0
  6  9  1  0  0  0  0
  1 10  1  0  0  0  0
  9 10  1  0  0  0  0
 10 11  1  0  0  0  0
  7 12  1  0  0  0  0
 11 12  1  0  0  0  0
 11 13  1  0  0  0  0
  2 14  1  0  0  0  0
 13 14  1  0  0  0  0
 12 15  1  0  0  0  0
 14 15  1  0  0  0  0
 14 16  1  0  0  0  0
 16 17  2  0  0  0  0
 17 18  1  0  0  0  0
 15 19  1  0  0  0  0
 18 19  1  0  0  0  0
 19 20  1  0  0  0  0
 12 21  1  0  0  0  0
 20 21  1  0  0  0  0
 19 22  1  0  0  0  0
 15 23  1  0  0  0  0
 11 24  1  0  0  0  0
 24 25  2  0  0  0  0
 24 26  1  0  0  0  0
 26 27  1  0  0  0  0
  1 28  1  0  0  0  0
  1 29  1  0  0  0  0
  2 30  1  0  0  0  0
  2 31  1  0  0  0  0
  3 32  1  0  0  0  0
  4 33  1  0  0  0  0
  5 34  1  0  0  0  0
  8 35  1  0  0  0  0
  9 36  1  0  0  0  0
 10 37  1  0  0  0  0
 13 38  1  0  0  0  0
 13 39  1  0  0  0  0
 16 40  1  0  0  0  0
 17 41  1  0  0  0  0
 18 42  1  0  0  0  0
 18 43  1  0  0  0  0
 20 44  1  0  0  0  0
 20 45  1  0  0  0  0
 21 46  1  0  0  0  0
 21 47  1  0  0  0  0
 27 48  1  0  0  0  0
 27 49  1  0  0  0  0
 27 50  1  0  0  0  0
M  END
