 xtb: 6.7.1 (edcfbbe)
          08092618423D

 35 36  0     0  0            999 V2000
   -0.0777   -0.7832   -0.2919 c   0  0  0  0  0  0  0  0  0  0  0  0
    0.5321    0.5105   -0.8951 c   0  0  0  0  0  0  0  0  0  0  0  0
   -0.4571    1.6897   -0.7655 c   0  0  0  0  0  0  0  0  0  0  0  0
   -1.2463    1.7320    0.5420 c   0  0  0  0  0  0  0  0  0  0  0  0
   -1.8020    0.3464    0.8856 c   0  0  0  0  0  0  0  0  0  0  0  0
   -0.6199   -0.5952    1.1395 c   0  0  0  0  0  0  0  0  0  0  0  0
   -1.3909   -1.0924   -1.0400 c   0  0  0  0  0  0  0  0  0  0  0  0
   -2.4409   -0.2780   -0.3254 c   0  0  0  0  0  0  0  0  0  0  0  0
    0.2721   -0.1125    2.1105 o   0  0  0  0  0  0  0  0  0  0  0  0
    0.8917   -1.9666   -0.3670 c   0  0  0  0  0  0  0  0  0  0  0  0
   -3.6993   -0.1368   -0.7003 c   0  0  0  0  0  0  0  0  0  0  0  0
    1.9360    0.8701   -0.4431 c   0  0  0  0  0  0  0  0  0  0  0  0
    2.2300    1.5466    0.6561 c   0  0  0  0  0  0  0  0  0  0  0  0
    0.6248    0.3019   -1.9689 h   0  0  0  0  0  0  0  0  0  0  0  0
    1.9649   -1.7735    0.5396 o   0  0  0  0  0  0  0  0  0  0  0  0
    3.0163    0.5167   -1.4278 c   0  0  0  0  0  0  0  0  0  0  0  0
    0.0940    2.6239   -0.8877 h   0  0  0  0  0  0  0  0  0  0  0  0
   -1.1760    1.6224   -1.5851 h   0  0  0  0  0  0  0  0  0  0  0  0
   -0.6195    2.0574    1.3714 h   0  0  0  0  0  0  0  0  0  0  0  0
   -2.0688    2.4421    0.4371 h   0  0  0  0  0  0  0  0  0  0  0  0
   -2.4738    0.4119    1.7429 h   0  0  0  0  0  0  0  0  0  0  0  0
   -1.0083   -1.5739    1.4796 h   0  0  0  0  0  0  0  0  0  0  0  0
   -1.3355   -0.8535   -2.1018 h   0  0  0  0  0  0  0  0  0  0  0  0
   -1.6337   -2.1549   -0.9537 h   0  0  0  0  0  0  0  0  0  0  0  0
    1.1305   -0.5206    1.9256 h   0  0  0  0  0  0  0  0  0  0  0  0
    1.2676   -2.0756   -1.3932 h   0  0  0  0  0  0  0  0  0  0  0  0
    0.3497   -2.8856   -0.1004 h   0  0  0  0  0  0  0  0  0  0  0  0
   -4.0818   -0.6032   -1.5931 h   0  0  0  0  0  0  0  0  0  0  0  0
   -4.3965    0.4517   -0.1289 h   0  0  0  0  0  0  0  0  0  0  0  0
    3.2499    1.8047    0.8923 h   0  0  0  0  0  0  0  0  0  0  0  0
    1.4927    1.8485    1.3755 h   0  0  0  0  0  0  0  0  0  0  0  0
    2.5622   -2.5285    0.4845 h   0  0  0  0  0  0  0  0  0  0  0  0
    2.9884   -0.5403   -1.6819 h   0  0  0  0  0  0  0  0  0  0  0  0
    2.8751    1.0839   -2.3489 h   0  0  0  0  0  0  0  0  0  0  0  0
    3.9985    0.7500   -1.0252 h   0  0  0  0  0  0  0  0  0  0  0  0
  1  2  1  0  0  0  0
  2  3  1  0  0  0  0
  3  4  1  0  0  0  0
  4  5  1  0  0  0  0
  1  6  1  0  0  0  0
  5  6  1  0  0  0  0
  1  7  1  0  0  0  0
  5  8  1  0  0  0  0
  7  8  1  0  0  0  0
  6  9  1  0  0  0  0
  1 10  1  0  0  0  0
  8 11  2  0  0  0  0
  2 12  1  0  0  0  0
 12 13  2  0  0  0  0
  2 14  1  0  0  0  0
 10 15  1  0  0  0  0
 12 16  1  0  0  0  0
  3 17  1  0  0  0  0
  3 18  1  0  0  0  0
  4 19  1  0  0  0  0
  4 20  1  0  0  0  0
  5 21  1  0  0  0  0
  6 22  1  0  0  0  0
  7 23  1  0  0  0  0
  7 24  1  0  0  0  0
  9 25  1  0  0  0  0
 10 26  1  0  0  0  0
 10 27  1  0  0  0  0
 11 28  1  0  0  0  0
 11 29  1  0  0  0  0
 13 30  1  0  0  0  0
 13 31  1  0  0  0  0
 15 32  1  0  0  0  0
 16 33  1  0  0  0  0
 16 34  1  0  0  0  0
 16 35  1  0  0  0  0
M  END
