 xtb: 6.7.1 (edcfbbe)
          08092620243D

 50 55  0     0  0            999 V2000
    0.0215    0.5257    2.5689 c   0  0  0  0  0  0  0  0  0  0  0  0
    1.5216    0.7757    2.4136 c   0  0  0  0  0  0  0  0  0  0  0  0
   -2.2440   -3.1976   -0.2707 c   0  0  0  0  0  0  0  0  0  0  0  0
   -3.2989   -2.7447    0.5044 c   0  0  0  0  0  0  0  0  0  0  0  0
   -3.2489   -1.4819    1.0568 c   0  0  0  0  0  0  0  0  0  0  0  0
   -2.1633   -0.6373    0.8204 c   0  0  0  0  0  0  0  0  0  0  0  0
   -1.1262   -1.0668   -0.0217 c   0  0  0  0  0  0  0  0  0  0  0  0
   -1.1737   -2.3593   -0.5274 c   0  0  0  0  0  0  0  0  0  0  0  0
   -2.1454    0.6189    1.4000 n   0  0  0  0  0  0  0  0  0  0  0  0
   -0.8610    1.2596    1.5362 c   0  0  0  0  0  0  0  0  0  0  0  0
   -0.2146    1.2854    0.1342 c   0  0  0  0  0  0  0  0  0  0  0  0
    0.0339   -0.1540   -0.3648 c   0  0  0  0  0  0  0  0  0  0  0  0
    1.1795    1.8827    0.2466 c   0  0  0  0  0  0  0  0  0  0  0  0
    1.9390    0.7379    0.9329 c   0  0  0  0  0  0  0  0  0  0  0  0
    1.3812   -0.5591    0.3018 c   0  0  0  0  0  0  0  0  0  0  0  0
    3.4152    0.9155    0.7908 c   0  0  0  0  0  0  0  0  0  0  0  0
    4.1804    0.0644    0.1319 c   0  0  0  0  0  0  0  0  0  0  0  0
    3.6517   -1.1880   -0.4770 c   0  0  0  0  0  0  0  0  0  0  0  0
    2.2014   -1.1767   -0.7838 n   0  0  0  0  0  0  0  0  0  0  0  0
    1.8813   -0.3633   -1.9763 c   0  0  0  0  0  0  0  0  0  0  0  0
    0.3739   -0.1518   -1.8787 c   0  0  0  0  0  0  0  0  0  0  0  0
    1.8210   -2.4576   -0.9851 o   0  0  0  0  0  0  0  0  0  0  0  0
    1.2660   -1.3541    1.0395 h   0  0  0  0  0  0  0  0  0  0  0  0
   -1.1195    2.1116   -0.7598 c   0  0  0  0  0  0  0  0  0  0  0  0
   -0.9203    3.2828   -1.0064 o   0  0  0  0  0  0  0  0  0  0  0  0
   -2.1615    1.4362   -1.2164 o   0  0  0  0  0  0  0  0  0  0  0  0
   -3.1054    2.1481   -2.0146 c   0  0  0  0  0  0  0  0  0  0  0  0
   -0.2945    0.8228    3.5711 h   0  0  0  0  0  0  0  0  0  0  0  0
   -0.1813   -0.5424    2.4691 h   0  0  0  0  0  0  0  0  0  0  0  0
    1.7848    1.7524    2.8230 h   0  0  0  0  0  0  0  0  0  0  0  0
    2.0706    0.0183    2.9771 h   0  0  0  0  0  0  0  0  0  0  0  0
   -2.2511   -4.1987   -0.6747 h   0  0  0  0  0  0  0  0  0  0  0  0
   -4.1481   -3.3839    0.6988 h   0  0  0  0  0  0  0  0  0  0  0  0
   -4.0521   -1.1316    1.6902 h   0  0  0  0  0  0  0  0  0  0  0  0
   -0.3285   -2.7282   -1.0912 h   0  0  0  0  0  0  0  0  0  0  0  0
   -2.7759    0.7297    2.1806 h   0  0  0  0  0  0  0  0  0  0  0  0
   -1.0260    2.2962    1.8539 h   0  0  0  0  0  0  0  0  0  0  0  0
    1.1868    2.7960    0.8389 h   0  0  0  0  0  0  0  0  0  0  0  0
    1.5784    2.1234   -0.7374 h   0  0  0  0  0  0  0  0  0  0  0  0
    3.8238    1.8099    1.2369 h   0  0  0  0  0  0  0  0  0  0  0  0
    5.2453    0.2152    0.0364 h   0  0  0  0  0  0  0  0  0  0  0  0
    4.1643   -1.4357   -1.4089 h   0  0  0  0  0  0  0  0  0  0  0  0
    3.7974   -2.0353    0.2029 h   0  0  0  0  0  0  0  0  0  0  0  0
    2.4432    0.5695   -1.9329 h   0  0  0  0  0  0  0  0  0  0  0  0
    2.1656   -0.9339   -2.8603 h   0  0  0  0  0  0  0  0  0  0  0  0
   -0.1494   -0.9673   -2.3739 h   0  0  0  0  0  0  0  0  0  0  0  0
    0.0845    0.7815   -2.3583 h   0  0  0  0  0  0  0  0  0  0  0  0
   -2.6113    2.5892   -2.8822 h   0  0  0  0  0  0  0  0  0  0  0  0
   -3.8448    1.4135   -2.3201 h   0  0  0  0  0  0  0  0  0  0  0  0
   -3.5670    2.9440   -1.4280 h   0  0  0  0  0  0  0  0  0  0  0  0
  1  2  1  0  0  0  0
  3  4  4  0  0  0  0
  4  5  4  0  0  0  0
  5  6  4  0  0  0  0
  6  7  4  0  0  0  0
  3  8  4  0  0  0  0
  7  8  4  0  0  0  0
  6  9  1  0  0  0  0
  1 10  1  0  0  0  0
  9 10  1  0  0  0  0
 10 11  1  0  0  0  0
  7 12  1  0  0  0  0
 11 12  1  0  0  0  0
 11 13  1  0  0  0  0
  2 14  1  0  0  0  0
 13 14  1  0  0  0  0
 12 15  1  0  0  0  0
 14 15  1  0  0  0  0
 14 16  1  0  0  0  0
 16 17  2  0  0  0  0
 17 18  1  0  0  0  0
 15 19  1  0  0  0  0
 18 19  1  0  0  0  0
 19 20  1  0  0  0  0
 12 21  1  0  0  0  0
 20 21  1  0  0  0  0
 19 22  1  0  0  0  0
 15 23  1  0  0  0  0
 11 24  1  0  0  0  0
 24 25  2  0  0  0  0
 24 26  1  0  0  0  0
 26 27  1  0  0  0  0
  1 28  1  0  0  0  0
  1 29  1  0  0  0  0
  2 30  1  0  0  0  0
  2 31  1  0  0  0  0
  3 32  1  0  0  0  0
  4 33  1  0  0  0  0
  5 34  1  0  0  0  0
  8 35  1  0  0  0  0
  9 36  1  0  0  0  0
 10 37  1  0  0  0  0
 13 38  1  0  0  0  0
 13 39  1  0  0  0  0
 16 40  1  0  0  0  0
 17 41  1  0  0  0  0
 18 42  1  0  0  0  0
 18 43  1  0  0  0  0
 20 44  1  0  0  0  0
 20 45  1  0  0  0  0
 21 46  1  0  0  0  0
 21 47  1  0  0  0  0
 27 48  1  0  0  0  0
 27 49  1  0  0  0  0
 27 50  1  0  0  0  0
M  END
