 xtb: 6.7.1 (edcfbbe)
          08092615283D

 35 36  0     0  0            999 V2000
    0.0988   -0.6337    0.0979 c   0  0  0  0  0  0  0  0  0  0  0  0
   -0.9213    0.3760    0.6830 c   0  0  0  0  0  0  0  0  0  0  0  0
   -0.3465    1.8106    0.7157 c   0  0  0  0  0  0  0  0  0  0  0  0
    0.5508    2.1922   -0.4623 c   0  0  0  0  0  0  0  0  0  0  0  0
    1.5045    1.0454   -0.8115 c   0  0  0  0  0  0  0  0  0  0  0  0
    0.6568   -0.1491   -1.2571 c   0  0  0  0  0  0  0  0  0  0  0  0
    1.3646   -0.6094    0.9794 c   0  0  0  0  0  0  0  0  0  0  0  0
    2.1906    0.5246    0.4271 c   0  0  0  0  0  0  0  0  0  0  0  0
    1.4093   -1.1326   -1.9387 o   0  0  0  0  0  0  0  0  0  0  0  0
   -0.5128   -2.0378   -0.0154 c   0  0  0  0  0  0  0  0  0  0  0  0
    3.3239    0.9790    0.9309 c   0  0  0  0  0  0  0  0  0  0  0  0
   -2.3146    0.3106    0.0907 c   0  0  0  0  0  0  0  0  0  0  0  0
   -3.3234   -0.1138    0.8421 c   0  0  0  0  0  0  0  0  0  0  0  0
   -1.0467    0.0847    1.7335 h   0  0  0  0  0  0  0  0  0  0  0  0
   -0.9239   -2.5796    1.2205 o   0  0  0  0  0  0  0  0  0  0  0  0
   -2.5691    0.7625   -1.3158 c   0  0  0  0  0  0  0  0  0  0  0  0
   -1.1734    2.5193    0.7945 h   0  0  0  0  0  0  0  0  0  0  0  0
    0.2482    1.9087    1.6260 h   0  0  0  0  0  0  0  0  0  0  0  0
   -0.0370    2.4369   -1.3484 h   0  0  0  0  0  0  0  0  0  0  0  0
    1.1258    3.0800   -0.1914 h   0  0  0  0  0  0  0  0  0  0  0  0
    2.2102    1.3596   -1.5841 h   0  0  0  0  0  0  0  0  0  0  0  0
   -0.1187    0.1304   -1.9676 h   0  0  0  0  0  0  0  0  0  0  0  0
    1.9028   -1.5576    0.8961 h   0  0  0  0  0  0  0  0  0  0  0  0
    1.1336   -0.4730    2.0357 h   0  0  0  0  0  0  0  0  0  0  0  0
    2.1810   -1.3475   -1.3985 h   0  0  0  0  0  0  0  0  0  0  0  0
    0.2346   -2.7326   -0.4068 h   0  0  0  0  0  0  0  0  0  0  0  0
   -1.3535   -2.0148   -0.7205 h   0  0  0  0  0  0  0  0  0  0  0  0
    3.7535    0.5633    1.8273 h   0  0  0  0  0  0  0  0  0  0  0  0
    3.8654    1.7877    0.4695 h   0  0  0  0  0  0  0  0  0  0  0  0
   -4.3325   -0.1561    0.4667 h   0  0  0  0  0  0  0  0  0  0  0  0
   -3.1974   -0.4254    1.8670 h   0  0  0  0  0  0  0  0  0  0  0  0
   -1.6826   -2.0673    1.5290 h   0  0  0  0  0  0  0  0  0  0  0  0
   -2.0797    1.7117   -1.5156 h   0  0  0  0  0  0  0  0  0  0  0  0
   -2.2006    0.0294   -2.0323 h   0  0  0  0  0  0  0  0  0  0  0  0
   -3.6376    0.8820   -1.4816 h   0  0  0  0  0  0  0  0  0  0  0  0
  1  2  1  0  0  0  0
  2  3  1  0  0  0  0
  3  4  1  0  0  0  0
  4  5  1  0  0  0  0
  1  6  1  0  0  0  0
  5  6  1  0  0  0  0
  1  7  1  0  0  0  0
  5  8  1  0  0  0  0
  7  8  1  0  0  0  0
  6  9  1  0  0  0  0
  1 10  1  0  0  0  0
  8 11  2  0  0  0  0
  2 12  1  0  0  0  0
 12 13  2  0  0  0  0
  2 14  1  0  0  0  0
 10 15  1  0  0  0  0
 12 16  1  0  0  0  0
  3 17  1  0  0  0  0
  3 18  1  0  0  0  0
  4 19  1  0  0  0  0
  4 20  1  0  0  0  0
  5 21  1  0  0  0  0
  6 22  1  0  0  0  0
  7 23  1  0  0  0  0
  7 24  1  0  0  0  0
  9 25  1  0  0  0  0
 10 26  1  0  0  0  0
 10 27  1  0  0  0  0
 11 28  1  0  0  0  0
 11 29  1  0  0  0  0
 13 30  1  0  0  0  0
 13 31  1  0  0  0  0
 15 32  1  0  0  0  0
 16 33  1  0  0  0  0
 16 34  1  0  0  0  0
 16 35  1  0  0  0  0
M  END
