 xtb: 6.7.1 (edcfbbe)
          08092617483D

 35 36  0     0  0            999 V2000
    0.0976   -0.7006   -0.2954 c   0  0  0  0  0  0  0  0  0  0  0  0
    0.5964    0.6210   -0.9490 c   0  0  0  0  0  0  0  0  0  0  0  0
   -0.4921    1.7072   -0.8537 c   0  0  0  0  0  0  0  0  0  0  0  0
   -1.2198    1.7524    0.4888 c   0  0  0  0  0  0  0  0  0  0  0  0
   -1.6658    0.3454    0.9025 c   0  0  0  0  0  0  0  0  0  0  0  0
   -0.4261   -0.5187    1.1465 c   0  0  0  0  0  0  0  0  0  0  0  0
   -1.2126   -1.1180   -0.9959 c   0  0  0  0  0  0  0  0  0  0  0  0
   -2.2981   -0.3651   -0.2652 c   0  0  0  0  0  0  0  0  0  0  0  0
    0.4562    0.0346    2.0921 o   0  0  0  0  0  0  0  0  0  0  0  0
    1.1835   -1.7852   -0.3817 c   0  0  0  0  0  0  0  0  0  0  0  0
   -3.5766   -0.3360   -0.5941 c   0  0  0  0  0  0  0  0  0  0  0  0
    1.9713    1.1001   -0.5169 c   0  0  0  0  0  0  0  0  0  0  0  0
    3.0446    0.6896   -1.1810 c   0  0  0  0  0  0  0  0  0  0  0  0
    0.7086    0.3778   -2.0139 h   0  0  0  0  0  0  0  0  0  0  0  0
    0.8682   -2.9720    0.3171 o   0  0  0  0  0  0  0  0  0  0  0  0
    2.1134    2.0901    0.5986 c   0  0  0  0  0  0  0  0  0  0  0  0
   -0.0503    2.6801   -1.0718 h   0  0  0  0  0  0  0  0  0  0  0  0
   -1.2355    1.5153   -1.6304 h   0  0  0  0  0  0  0  0  0  0  0  0
   -0.5800    2.1520    1.2736 h   0  0  0  0  0  0  0  0  0  0  0  0
   -2.0948    2.3989    0.3971 h   0  0  0  0  0  0  0  0  0  0  0  0
   -2.3149    0.3976    1.7782 h   0  0  0  0  0  0  0  0  0  0  0  0
   -0.7506   -1.5079    1.5103 h   0  0  0  0  0  0  0  0  0  0  0  0
   -1.2035   -0.8994   -2.0639 h   0  0  0  0  0  0  0  0  0  0  0  0
   -1.3870   -2.1922   -0.8836 h   0  0  0  0  0  0  0  0  0  0  0  0
    1.1827   -0.5885    2.2140 h   0  0  0  0  0  0  0  0  0  0  0  0
    2.1056   -1.4217    0.0777 h   0  0  0  0  0  0  0  0  0  0  0  0
    1.3928   -2.0095   -1.4358 h   0  0  0  0  0  0  0  0  0  0  0  0
   -3.9537   -0.8594   -1.4572 h   0  0  0  0  0  0  0  0  0  0  0  0
   -4.2970    0.2158   -0.0148 h   0  0  0  0  0  0  0  0  0  0  0  0
    4.0358    1.0184   -0.9156 h   0  0  0  0  0  0  0  0  0  0  0  0
    2.9853    0.0072   -2.0128 h   0  0  0  0  0  0  0  0  0  0  0  0
    0.1037   -3.3874   -0.1024 h   0  0  0  0  0  0  0  0  0  0  0  0
    1.6184    1.7350    1.4972 h   0  0  0  0  0  0  0  0  0  0  0  0
    3.1651    2.2595    0.8173 h   0  0  0  0  0  0  0  0  0  0  0  0
    1.6672    3.0439    0.3213 h   0  0  0  0  0  0  0  0  0  0  0  0
  1  2  1  0  0  0  0
  2  3  1  0  0  0  0
  3  4  1  0  0  0  0
  4  5  1  0  0  0  0
  1  6  1  0  0  0  0
  5  6  1  0  0  0  0
  1  7  1  0  0  0  0
  5  8  1  0  0  0  0
  7  8  1  0  0  0  0
  6  9  1  0  0  0  0
  1 10  1  0  0  0  0
  8 11  2  0  0  0  0
  2 12  1  0  0  0  0
 12 13  2  0  0  0  0
  2 14  1  0  0  0  0
 10 15  1  0  0  0  0
 12 16  1  0  0  0  0
  3 17  1  0  0  0  0
  3 18  1  0  0  0  0
  4 19  1  0  0  0  0
  4 20  1  0  0  0  0
  5 21  1  0  0  0  0
  6 22  1  0  0  0  0
  7 23  1  0  0  0  0
  7 24  1  0  0  0  0
  9 25  1  0  0  0  0
 10 26  1  0  0  0  0
 10 27  1  0  0  0  0
 11 28  1  0  0  0  0
 11 29  1  0  0  0  0
 13 30  1  0  0  0  0
 13 31  1  0  0  0  0
 15 32  1  0  0  0  0
 16 33  1  0  0  0  0
 16 34  1  0  0  0  0
 16 35  1  0  0  0  0
M  END
