 xtb: 6.7.1 (edcfbbe)
          08092616283D

 35 36  0     0  0            999 V2000
    0.1366   -0.5698    0.4138 c   0  0  0  0  0  0  0  0  0  0  0  0
   -0.9320    0.5081    0.7325 c   0  0  0  0  0  0  0  0  0  0  0  0
   -0.3387    1.9240    0.5609 c   0  0  0  0  0  0  0  0  0  0  0  0
    0.5825    2.1104   -0.6468 c   0  0  0  0  0  0  0  0  0  0  0  0
    1.5277    0.9145   -0.8019 c   0  0  0  0  0  0  0  0  0  0  0  0
    0.6775   -0.3409   -1.0077 c   0  0  0  0  0  0  0  0  0  0  0  0
    1.3863   -0.3284    1.2852 c   0  0  0  0  0  0  0  0  0  0  0  0
    2.2242    0.6487    0.5067 c   0  0  0  0  0  0  0  0  0  0  0  0
    1.4333   -1.4724   -1.4186 o   0  0  0  0  0  0  0  0  0  0  0  0
   -0.3867   -2.0001    0.6163 c   0  0  0  0  0  0  0  0  0  0  0  0
    3.3717    1.1772    0.8913 c   0  0  0  0  0  0  0  0  0  0  0  0
   -2.2532    0.3249    0.0101 c   0  0  0  0  0  0  0  0  0  0  0  0
   -2.5170    0.7690   -1.2099 c   0  0  0  0  0  0  0  0  0  0  0  0
   -1.1574    0.3915    1.7990 h   0  0  0  0  0  0  0  0  0  0  0  0
   -1.3048   -2.4253   -0.3667 o   0  0  0  0  0  0  0  0  0  0  0  0
   -3.3281   -0.3531    0.8099 c   0  0  0  0  0  0  0  0  0  0  0  0
   -1.1588    2.6422    0.5046 h   0  0  0  0  0  0  0  0  0  0  0  0
    0.2391    2.1579    1.4570 h   0  0  0  0  0  0  0  0  0  0  0  0
    0.0089    2.2318   -1.5663 h   0  0  0  0  0  0  0  0  0  0  0  0
    1.1700    3.0197   -0.5041 h   0  0  0  0  0  0  0  0  0  0  0  0
    2.2274    1.0891   -1.6243 h   0  0  0  0  0  0  0  0  0  0  0  0
   -0.1315   -0.1736   -1.7297 h   0  0  0  0  0  0  0  0  0  0  0  0
    1.9400   -1.2622    1.4059 h   0  0  0  0  0  0  0  0  0  0  0  0
    1.1352    0.0379    2.2802 h   0  0  0  0  0  0  0  0  0  0  0  0
    1.9954   -1.2094   -2.1574 h   0  0  0  0  0  0  0  0  0  0  0  0
   -0.9082   -2.0742    1.5735 h   0  0  0  0  0  0  0  0  0  0  0  0
    0.4693   -2.6868    0.6336 h   0  0  0  0  0  0  0  0  0  0  0  0
    3.8066    0.9514    1.8504 h   0  0  0  0  0  0  0  0  0  0  0  0
    3.9216    1.8583    0.2637 h   0  0  0  0  0  0  0  0  0  0  0  0
   -3.4890    0.6245   -1.6526 h   0  0  0  0  0  0  0  0  0  0  0  0
   -1.8058    1.2887   -1.8253 h   0  0  0  0  0  0  0  0  0  0  0  0
   -0.8298   -2.4523   -1.2063 h   0  0  0  0  0  0  0  0  0  0  0  0
   -4.2817   -0.3084    0.2902 h   0  0  0  0  0  0  0  0  0  0  0  0
   -3.0760   -1.3996    0.9651 h   0  0  0  0  0  0  0  0  0  0  0  0
   -3.4367    0.1222    1.7842 h   0  0  0  0  0  0  0  0  0  0  0  0
  1  2  1  0  0  0  0
  2  3  1  0  0  0  0
  3  4  1  0  0  0  0
  4  5  1  0  0  0  0
  1  6  1  0  0  0  0
  5  6  1  0  0  0  0
  1  7  1  0  0  0  0
  5  8  1  0  0  0  0
  7  8  1  0  0  0  0
  6  9  1  0  0  0  0
  1 10  1  0  0  0  0
  8 11  2  0  0  0  0
  2 12  1  0  0  0  0
 12 13  2  0  0  0  0
  2 14  1  0  0  0  0
 10 15  1  0  0  0  0
 12 16  1  0  0  0  0
  3 17  1  0  0  0  0
  3 18  1  0  0  0  0
  4 19  1  0  0  0  0
  4 20  1  0  0  0  0
  5 21  1  0  0  0  0
  6 22  1  0  0  0  0
  7 23  1  0  0  0  0
  7 24  1  0  0  0  0
  9 25  1  0  0  0  0
 10 26  1  0  0  0  0
 10 27  1  0  0  0  0
 11 28  1  0  0  0  0
 11 29  1  0  0  0  0
 13 30  1  0  0  0  0
 13 31  1  0  0  0  0
 15 32  1  0  0  0  0
 16 33  1  0  0  0  0
 16 34  1  0  0  0  0
 16 35  1  0  0  0  0
M  END
