 xtb: 6.7.1 (edcfbbe)
          08092615283D

 35 36  0     0  0            999 V2000
    0.1307   -0.5791    0.4134 c   0  0  0  0  0  0  0  0  0  0  0  0
   -0.9159    0.5211    0.7312 c   0  0  0  0  0  0  0  0  0  0  0  0
   -0.3184    1.9291    0.5165 c   0  0  0  0  0  0  0  0  0  0  0  0
    0.5968    2.0779   -0.7007 c   0  0  0  0  0  0  0  0  0  0  0  0
    1.5423    0.8788   -0.8117 c   0  0  0  0  0  0  0  0  0  0  0  0
    0.6956   -0.3783   -1.0091 c   0  0  0  0  0  0  0  0  0  0  0  0
    1.3809   -0.3551    1.2844 c   0  0  0  0  0  0  0  0  0  0  0  0
    2.2093    0.6411    0.5171 c   0  0  0  0  0  0  0  0  0  0  0  0
    1.5117   -1.4438   -1.4318 o   0  0  0  0  0  0  0  0  0  0  0  0
   -0.4428   -1.9919    0.6016 c   0  0  0  0  0  0  0  0  0  0  0  0
    3.3216    1.2138    0.9366 c   0  0  0  0  0  0  0  0  0  0  0  0
   -2.2529    0.3373    0.0404 c   0  0  0  0  0  0  0  0  0  0  0  0
   -2.5164    0.6722   -1.2153 c   0  0  0  0  0  0  0  0  0  0  0  0
   -1.1231    0.4338    1.8058 h   0  0  0  0  0  0  0  0  0  0  0  0
   -1.2079   -2.4401   -0.4931 o   0  0  0  0  0  0  0  0  0  0  0  0
   -3.3512   -0.1909    0.9234 c   0  0  0  0  0  0  0  0  0  0  0  0
   -1.1356    2.6504    0.4498 h   0  0  0  0  0  0  0  0  0  0  0  0
    0.2682    2.1809    1.4022 h   0  0  0  0  0  0  0  0  0  0  0  0
    0.0188    2.1684   -1.6212 h   0  0  0  0  0  0  0  0  0  0  0  0
    1.1802    2.9938   -0.5884 h   0  0  0  0  0  0  0  0  0  0  0  0
    2.2584    1.0156   -1.6224 h   0  0  0  0  0  0  0  0  0  0  0  0
   -0.1030   -0.2207   -1.7439 h   0  0  0  0  0  0  0  0  0  0  0  0
    1.9421   -1.2877    1.3759 h   0  0  0  0  0  0  0  0  0  0  0  0
    1.1388   -0.0121    2.2909 h   0  0  0  0  0  0  0  0  0  0  0  0
    0.9484   -2.2223   -1.5194 h   0  0  0  0  0  0  0  0  0  0  0  0
   -1.0240   -2.0384    1.5343 h   0  0  0  0  0  0  0  0  0  0  0  0
    0.3750   -2.7127    0.6899 h   0  0  0  0  0  0  0  0  0  0  0  0
    3.7341    1.0088    1.9102 h   0  0  0  0  0  0  0  0  0  0  0  0
    3.8688    1.9059    0.3198 h   0  0  0  0  0  0  0  0  0  0  0  0
   -3.5011    0.5336   -1.6320 h   0  0  0  0  0  0  0  0  0  0  0  0
   -1.7918    1.1055   -1.8788 h   0  0  0  0  0  0  0  0  0  0  0  0
   -1.9299   -1.8153   -0.6408 h   0  0  0  0  0  0  0  0  0  0  0  0
   -3.0636   -1.1170    1.4185 h   0  0  0  0  0  0  0  0  0  0  0  0
   -3.5710    0.5392    1.7031 h   0  0  0  0  0  0  0  0  0  0  0  0
   -4.2616   -0.3676    0.3554 h   0  0  0  0  0  0  0  0  0  0  0  0
  1  2  1  0  0  0  0
  2  3  1  0  0  0  0
  3  4  1  0  0  0  0
  4  5  1  0  0  0  0
  1  6  1  0  0  0  0
  5  6  1  0  0  0  0
  1  7  1  0  0  0  0
  5  8  1  0  0  0  0
  7  8  1  0  0  0  0
  6  9  1  0  0  0  0
  1 10  1  0  0  0  0
  8 11  2  0  0  0  0
  2 12  1  0  0  0  0
 12 13  2  0  0  0  0
  2 14  1  0  0  0  0
 10 15  1  0  0  0  0
 12 16  1  0  0  0  0
  3 17  1  0  0  0  0
  3 18  1  0  0  0  0
  4 19  1  0  0  0  0
  4 20  1  0  0  0  0
  5 21  1  0  0  0  0
  6 22  1  0  0  0  0
  7 23  1  0  0  0  0
  7 24  1  0  0  0  0
  9 25  1  0  0  0  0
 10 26  1  0  0  0  0
 10 27  1  0  0  0  0
 11 28  1  0  0  0  0
 11 29  1  0  0  0  0
 13 30  1  0  0  0  0
 13 31  1  0  0  0  0
 15 32  1  0  0  0  0
 16 33  1  0  0  0  0
 16 34  1  0  0  0  0
 16 35  1  0  0  0  0
M  END
