 xtb: 6.7.1 (edcfbbe)
          08092617483D

 35 36  0     0  0            999 V2000
    0.0297   -0.7792   -0.0360 c   0  0  0  0  0  0  0  0  0  0  0  0
    0.6527    0.4117   -0.8189 c   0  0  0  0  0  0  0  0  0  0  0  0
   -0.3995    1.5174   -1.0129 c   0  0  0  0  0  0  0  0  0  0  0  0
   -1.2411    1.8062    0.2296 c   0  0  0  0  0  0  0  0  0  0  0  0
   -1.7678    0.5015    0.8378 c   0  0  0  0  0  0  0  0  0  0  0  0
   -0.5815   -0.3439    1.3129 c   0  0  0  0  0  0  0  0  0  0  0  0
   -1.2441   -1.2528   -0.7692 c   0  0  0  0  0  0  0  0  0  0  0  0
   -2.3476   -0.3679   -0.2436 c   0  0  0  0  0  0  0  0  0  0  0  0
    0.2470    0.3479    2.2058 o   0  0  0  0  0  0  0  0  0  0  0  0
    1.0231   -1.9349    0.1417 c   0  0  0  0  0  0  0  0  0  0  0  0
   -3.5973   -0.3548   -0.6681 c   0  0  0  0  0  0  0  0  0  0  0  0
    1.9865    0.9079   -0.2847 c   0  0  0  0  0  0  0  0  0  0  0  0
    3.1000    0.2754   -0.6311 c   0  0  0  0  0  0  0  0  0  0  0  0
    0.8821    0.0059   -1.8128 h   0  0  0  0  0  0  0  0  0  0  0  0
    1.4759   -2.4838   -1.0706 o   0  0  0  0  0  0  0  0  0  0  0  0
    2.0562    2.1398    0.5674 c   0  0  0  0  0  0  0  0  0  0  0  0
    0.0921    2.4306   -1.3502 h   0  0  0  0  0  0  0  0  0  0  0  0
   -1.0774    1.2115   -1.8132 h   0  0  0  0  0  0  0  0  0  0  0  0
   -0.6607    2.3268    0.9883 h   0  0  0  0  0  0  0  0  0  0  0  0
   -2.0848    2.4398   -0.0514 h   0  0  0  0  0  0  0  0  0  0  0  0
   -2.4725    0.7182    1.6415 h   0  0  0  0  0  0  0  0  0  0  0  0
   -0.9718   -1.2495    1.8139 h   0  0  0  0  0  0  0  0  0  0  0  0
   -1.1574   -1.1904   -1.8551 h   0  0  0  0  0  0  0  0  0  0  0  0
   -1.4629   -2.2940   -0.5089 h   0  0  0  0  0  0  0  0  0  0  0  0
    1.0257   -0.1889    2.3839 h   0  0  0  0  0  0  0  0  0  0  0  0
    0.5500   -2.7170    0.7588 h   0  0  0  0  0  0  0  0  0  0  0  0
    1.9245   -1.5905    0.6551 h   0  0  0  0  0  0  0  0  0  0  0  0
   -3.9344   -0.9957   -1.4657 h   0  0  0  0  0  0  0  0  0  0  0  0
   -4.3338    0.2997   -0.2350 h   0  0  0  0  0  0  0  0  0  0  0  0
    4.0661    0.6006   -0.2811 h   0  0  0  0  0  0  0  0  0  0  0  0
    3.0954   -0.5942   -1.2658 h   0  0  0  0  0  0  0  0  0  0  0  0
    0.7115   -2.7795   -1.5776 h   0  0  0  0  0  0  0  0  0  0  0  0
    1.4445    2.0346    1.4586 h   0  0  0  0  0  0  0  0  0  0  0  0
    3.0850    2.3229    0.8690 h   0  0  0  0  0  0  0  0  0  0  0  0
    1.7068    3.0114    0.0160 h   0  0  0  0  0  0  0  0  0  0  0  0
  1  2  1  0  0  0  0
  2  3  1  0  0  0  0
  3  4  1  0  0  0  0
  4  5  1  0  0  0  0
  1  6  1  0  0  0  0
  5  6  1  0  0  0  0
  1  7  1  0  0  0  0
  5  8  1  0  0  0  0
  7  8  1  0  0  0  0
  6  9  1  0  0  0  0
  1 10  1  0  0  0  0
  8 11  2  0  0  0  0
  2 12  1  0  0  0  0
 12 13  2  0  0  0  0
  2 14  1  0  0  0  0
 10 15  1  0  0  0  0
 12 16  1  0  0  0  0
  3 17  1  0  0  0  0
  3 18  1  0  0  0  0
  4 19  1  0  0  0  0
  4 20  1  0  0  0  0
  5 21  1  0  0  0  0
  6 22  1  0  0  0  0
  7 23  1  0  0  0  0
  7 24  1  0  0  0  0
  9 25  1  0  0  0  0
 10 26  1  0  0  0  0
 10 27  1  0  0  0  0
 11 28  1  0  0  0  0
 11 29  1  0  0  0  0
 13 30  1  0  0  0  0
 13 31  1  0  0  0  0
 15 32  1  0  0  0  0
 16 33  1  0  0  0  0
 16 34  1  0  0  0  0
 16 35  1  0  0  0  0
M  END
