 xtb: 6.7.1 (edcfbbe)
          08092621573D

 50 55  0     0  0            999 V2000
   -0.2884   -0.5184   -2.8018 c   0  0  0  0  0  0  0  0  0  0  0  0
    0.7845    0.5271   -2.4836 c   0  0  0  0  0  0  0  0  0  0  0  0
   -2.5762    3.0232    0.6863 c   0  0  0  0  0  0  0  0  0  0  0  0
   -3.6168    2.5596   -0.1018 c   0  0  0  0  0  0  0  0  0  0  0  0
   -3.4908    1.3485   -0.7458 c   0  0  0  0  0  0  0  0  0  0  0  0
   -2.3332    0.5766   -0.6092 c   0  0  0  0  0  0  0  0  0  0  0  0
   -1.2907    1.0189    0.2142 c   0  0  0  0  0  0  0  0  0  0  0  0
   -1.4380    2.2517    0.8390 c   0  0  0  0  0  0  0  0  0  0  0  0
   -2.2500   -0.6327   -1.2490 n   0  0  0  0  0  0  0  0  0  0  0  0
   -0.9643   -1.1834   -1.5730 c   0  0  0  0  0  0  0  0  0  0  0  0
   -0.0392   -1.1724   -0.3306 c   0  0  0  0  0  0  0  0  0  0  0  0
   -0.0498    0.1801    0.4514 c   0  0  0  0  0  0  0  0  0  0  0  0
    1.3873   -1.3237   -0.8860 c   0  0  0  0  0  0  0  0  0  0  0  0
    1.6885    0.1284   -1.2942 c   0  0  0  0  0  0  0  0  0  0  0  0
    1.2259    0.8633   -0.0531 c   0  0  0  0  0  0  0  0  0  0  0  0
    3.1271    0.4916   -1.5242 c   0  0  0  0  0  0  0  0  0  0  0  0
    3.8264    1.2404   -0.6810 c   0  0  0  0  0  0  0  0  0  0  0  0
    3.3189    1.7040    0.6611 c   0  0  0  0  0  0  0  0  0  0  0  0
    2.2494    0.7623    1.0499 n   0  0  0  0  0  0  0  0  0  0  0  0
    1.4043    1.0441    2.2284 c   0  0  0  0  0  0  0  0  0  0  0  0
    0.2397    0.0767    1.9772 c   0  0  0  0  0  0  0  0  0  0  0  0
    2.8361   -0.4361    1.2612 o   0  0  0  0  0  0  0  0  0  0  0  0
    1.0795    1.9299   -0.2290 h   0  0  0  0  0  0  0  0  0  0  0  0
   -0.4835   -2.3491    0.5094 c   0  0  0  0  0  0  0  0  0  0  0  0
    0.0296   -3.4454    0.4881 o   0  0  0  0  0  0  0  0  0  0  0  0
   -1.5688   -2.0653    1.2245 o   0  0  0  0  0  0  0  0  0  0  0  0
   -2.1307   -3.1235    1.9995 c   0  0  0  0  0  0  0  0  0  0  0  0
    0.1587   -1.3056   -3.4093 h   0  0  0  0  0  0  0  0  0  0  0  0
   -1.0669   -0.0497   -3.4077 h   0  0  0  0  0  0  0  0  0  0  0  0
    1.3966    0.6685   -3.3763 h   0  0  0  0  0  0  0  0  0  0  0  0
    0.3083    1.4843   -2.2628 h   0  0  0  0  0  0  0  0  0  0  0  0
   -2.6516    3.9769    1.1865 h   0  0  0  0  0  0  0  0  0  0  0  0
   -4.5164    3.1453   -0.2205 h   0  0  0  0  0  0  0  0  0  0  0  0
   -4.2904    0.9774   -1.3716 h   0  0  0  0  0  0  0  0  0  0  0  0
   -0.6519    2.6308    1.4712 h   0  0  0  0  0  0  0  0  0  0  0  0
   -2.9787   -0.8145   -1.9234 h   0  0  0  0  0  0  0  0  0  0  0  0
   -1.1347   -2.2378   -1.8312 h   0  0  0  0  0  0  0  0  0  0  0  0
    2.0766   -1.6288   -0.0988 h   0  0  0  0  0  0  0  0  0  0  0  0
    1.4423   -2.0395   -1.7007 h   0  0  0  0  0  0  0  0  0  0  0  0
    3.5774    0.1355   -2.4391 h   0  0  0  0  0  0  0  0  0  0  0  0
    4.8515    1.5005   -0.8991 h   0  0  0  0  0  0  0  0  0  0  0  0
    2.9498    2.7335    0.6333 h   0  0  0  0  0  0  0  0  0  0  0  0
    4.1165    1.6194    1.4022 h   0  0  0  0  0  0  0  0  0  0  0  0
    1.9645    0.7935    3.1283 h   0  0  0  0  0  0  0  0  0  0  0  0
    1.1042    2.0909    2.2455 h   0  0  0  0  0  0  0  0  0  0  0  0
   -0.6357    0.3098    2.5783 h   0  0  0  0  0  0  0  0  0  0  0  0
    0.5934   -0.9248    2.2228 h   0  0  0  0  0  0  0  0  0  0  0  0
   -2.9914   -2.6941    2.5042 h   0  0  0  0  0  0  0  0  0  0  0  0
   -2.4307   -3.9473    1.3496 h   0  0  0  0  0  0  0  0  0  0  0  0
   -1.3991   -3.4923    2.7204 h   0  0  0  0  0  0  0  0  0  0  0  0
  1  2  1  0  0  0  0
  3  4  4  0  0  0  0
  4  5  4  0  0  0  0
  5  6  4  0  0  0  0
  6  7  4  0  0  0  0
  3  8  4  0  0  0  0
  7  8  4  0  0  0  0
  6  9  1  0  0  0  0
  1 10  1  0  0  0  0
  9 10  1  0  0  0  0
 10 11  1  0  0  0  0
  7 12  1  0  0  0  0
 11 12  1  0  0  0  0
 11 13  1  0  0  0  0
  2 14  1  0  0  0  0
 13 14  1  0  0  0  0
 12 15  1  0  0  0  0
 14 15  1  0  0  0  0
 14 16  1  0  0  0  0
 16 17  2  0  0  0  0
 17 18  1  0  0  0  0
 15 19  1  0  0  0  0
 18 19  1  0  0  0  0
 19 20  1  0  0  0  0
 12 21  1  0  0  0  0
 20 21  1  0  0  0  0
 19 22  1  0  0  0  0
 15 23  1  0  0  0  0
 11 24  1  0  0  0  0
 24 25  2  0  0  0  0
 24 26  1  0  0  0  0
 26 27  1  0  0  0  0
  1 28  1  0  0  0  0
  1 29  1  0  0  0  0
  2 30  1  0  0  0  0
  2 31  1  0  0  0  0
  3 32  1  0  0  0  0
  4 33  1  0  0  0  0
  5 34  1  0  0  0  0
  8 35  1  0  0  0  0
  9 36  1  0  0  0  0
 10 37  1  0  0  0  0
 13 38  1  0  0  0  0
 13 39  1  0  0  0  0
 16 40  1  0  0  0  0
 17 41  1  0  0  0  0
 18 42  1  0  0  0  0
 18 43  1  0  0  0  0
 20 44  1  0  0  0  0
 20 45  1  0  0  0  0
 21 46  1  0  0  0  0
 21 47  1  0  0  0  0
 27 48  1  0  0  0  0
 27 49  1  0  0  0  0
 27 50  1  0  0  0  0
M  END
