 xtb: 6.7.1 (edcfbbe)
          08092604353D

 42 44  0     0  0            999 V2000
   -0.9844   -1.5883   -0.1245 c   0  0  0  0  0  0  0  0  0  0  0  0
   -2.3112   -1.0764    0.4549 c   0  0  0  0  0  0  0  0  0  0  0  0
   -2.9612    0.0624   -0.3405 c   0  0  0  0  0  0  0  0  0  0  0  0
   -2.5332    1.4611    0.1054 c   0  0  0  0  0  0  0  0  0  0  0  0
   -1.1014    1.8635   -0.2566 c   0  0  0  0  0  0  0  0  0  0  0  0
   -0.0959    0.8446    0.2902 c   0  0  0  0  0  0  0  0  0  0  0  0
   -0.0308   -0.4542   -0.5247 c   0  0  0  0  0  0  0  0  0  0  0  0
   -0.1841   -2.4238    0.9092 c   0  0  0  0  0  0  0  0  0  0  0  0
    1.1710   -1.7306    1.0976 c   0  0  0  0  0  0  0  0  0  0  0  0
    1.3829   -0.9377   -0.1951 c   0  0  0  0  0  0  0  0  0  0  0  0
    1.2238    1.3742    0.2680 o   0  0  0  0  0  0  0  0  0  0  0  0
    2.1799    0.3738   -0.0944 c   0  0  0  0  0  0  0  0  0  0  0  0
   -0.1369   -0.2048   -1.5830 h   0  0  0  0  0  0  0  0  0  0  0  0
    1.7973   -1.5859   -0.9691 h   0  0  0  0  0  0  0  0  0  0  0  0
   -0.3575    0.6319    1.3375 h   0  0  0  0  0  0  0  0  0  0  0  0
   -0.8036    3.2557    0.2972 c   0  0  0  0  0  0  0  0  0  0  0  0
    2.7731    0.7387   -1.4633 c   0  0  0  0  0  0  0  0  0  0  0  0
    3.3024    0.3516    0.9449 c   0  0  0  0  0  0  0  0  0  0  0  0
   -1.2727   -2.4562   -1.3551 c   0  0  0  0  0  0  0  0  0  0  0  0
   -3.0013   -1.9232    0.4938 h   0  0  0  0  0  0  0  0  0  0  0  0
   -2.1625   -0.7401    1.4825 h   0  0  0  0  0  0  0  0  0  0  0  0
   -2.7599   -0.0561   -1.4054 h   0  0  0  0  0  0  0  0  0  0  0  0
   -4.0441   -0.0050   -0.2084 h   0  0  0  0  0  0  0  0  0  0  0  0
   -2.6556    1.5379    1.1890 h   0  0  0  0  0  0  0  0  0  0  0  0
   -3.2098    2.1893   -0.3492 h   0  0  0  0  0  0  0  0  0  0  0  0
   -0.9990    1.8977   -1.3472 h   0  0  0  0  0  0  0  0  0  0  0  0
   -0.0355   -3.4345    0.5282 h   0  0  0  0  0  0  0  0  0  0  0  0
   -0.7183   -2.5082    1.8554 h   0  0  0  0  0  0  0  0  0  0  0  0
    1.1230   -1.0503    1.9468 h   0  0  0  0  0  0  0  0  0  0  0  0
    1.9737   -2.4436    1.2811 h   0  0  0  0  0  0  0  0  0  0  0  0
    0.2158    3.5393    0.0548 h   0  0  0  0  0  0  0  0  0  0  0  0
   -1.4888    3.9872   -0.1259 h   0  0  0  0  0  0  0  0  0  0  0  0
   -0.9112    3.2619    1.3795 h   0  0  0  0  0  0  0  0  0  0  0  0
    3.1764    1.7471   -1.4227 h   0  0  0  0  0  0  0  0  0  0  0  0
    2.0054    0.7086   -2.2322 h   0  0  0  0  0  0  0  0  0  0  0  0
    3.5697    0.0483   -1.7284 h   0  0  0  0  0  0  0  0  0  0  0  0
    3.9804   -0.4740    0.7454 h   0  0  0  0  0  0  0  0  0  0  0  0
    3.8551    1.2861    0.8979 h   0  0  0  0  0  0  0  0  0  0  0  0
    2.9002    0.2487    1.9479 h   0  0  0  0  0  0  0  0  0  0  0  0
   -1.8503   -3.3339   -1.0714 h   0  0  0  0  0  0  0  0  0  0  0  0
   -1.8406   -1.9052   -2.1010 h   0  0  0  0  0  0  0  0  0  0  0  0
   -0.3435   -2.7884   -1.8125 h   0  0  0  0  0  0  0  0  0  0  0  0
  1  2  1  0  0  0  0
  2  3  1  0  0  0  0
  3  4  1  0  0  0  0
  4  5  1  0  0  0  0
  5  6  1  0  0  0  0
  1  7  1  0  0  0  0
  6  7  1  0  0  0  0
  1  8  1  0  0  0  0
  8  9  1  0  0  0  0
  7 10  1  0  0  0  0
  9 10  1  0  0  0  0
  6 11  1  0  0  0  0
 10 12  1  0  0  0  0
 11 12  1  0  0  0  0
  7 13  1  0  0  0  0
 10 14  1  0  0  0  0
  6 15  1  0  0  0  0
  5 16  1  0  0  0  0
 12 17  1  0  0  0  0
 12 18  1  0  0  0  0
  1 19  1  0  0  0  0
  2 20  1  0  0  0  0
  2 21  1  0  0  0  0
  3 22  1  0  0  0  0
  3 23  1  0  0  0  0
  4 24  1  0  0  0  0
  4 25  1  0  0  0  0
  5 26  1  0  0  0  0
  8 27  1  0  0  0  0
  8 28  1  0  0  0  0
  9 29  1  0  0  0  0
  9 30  1  0  0  0  0
 16 31  1  0  0  0  0
 16 32  1  0  0  0  0
 16 33  1  0  0  0  0
 17 34  1  0  0  0  0
 17 35  1  0  0  0  0
 17 36  1  0  0  0  0
 18 37  1  0  0  0  0
 18 38  1  0  0  0  0
 18 39  1  0  0  0  0
 19 40  1  0  0  0  0
 19 41  1  0  0  0  0
 19 42  1  0  0  0  0
M  END
