 xtb: 6.7.1 (edcfbbe)
          08092620243D

 50 55  0     0  0            999 V2000
    0.0371    0.5415    2.5620 c   0  0  0  0  0  0  0  0  0  0  0  0
    1.5105    0.8785    2.3396 c   0  0  0  0  0  0  0  0  0  0  0  0
   -2.1730   -3.4093   -0.0750 c   0  0  0  0  0  0  0  0  0  0  0  0
   -3.2762   -2.9400    0.6218 c   0  0  0  0  0  0  0  0  0  0  0  0
   -3.2715   -1.6576    1.1262 c   0  0  0  0  0  0  0  0  0  0  0  0
   -2.1810   -0.8099    0.9195 c   0  0  0  0  0  0  0  0  0  0  0  0
   -1.1169   -1.2427    0.1170 c   0  0  0  0  0  0  0  0  0  0  0  0
   -1.1143   -2.5594   -0.3317 c   0  0  0  0  0  0  0  0  0  0  0  0
   -2.1530    0.4043    1.5864 n   0  0  0  0  0  0  0  0  0  0  0  0
   -0.9332    1.1651    1.5386 c   0  0  0  0  0  0  0  0  0  0  0  0
   -0.3342    1.1635    0.1070 c   0  0  0  0  0  0  0  0  0  0  0  0
   -0.0171   -0.2931   -0.3111 c   0  0  0  0  0  0  0  0  0  0  0  0
    1.0246    1.8425    0.1314 c   0  0  0  0  0  0  0  0  0  0  0  0
    1.8773    0.7844    0.8488 c   0  0  0  0  0  0  0  0  0  0  0  0
    1.3784   -0.5763    0.3125 c   0  0  0  0  0  0  0  0  0  0  0  0
    3.3336    1.0411    0.6381 c   0  0  0  0  0  0  0  0  0  0  0  0
    4.1231    0.2047   -0.0109 c   0  0  0  0  0  0  0  0  0  0  0  0
    3.6491   -1.1056   -0.5374 c   0  0  0  0  0  0  0  0  0  0  0  0
    2.1893   -1.1994   -0.7779 n   0  0  0  0  0  0  0  0  0  0  0  0
    1.7668   -0.4724   -1.9944 c   0  0  0  0  0  0  0  0  0  0  0  0
    0.2538   -0.3658   -1.8383 c   0  0  0  0  0  0  0  0  0  0  0  0
    1.8826   -2.5099   -0.8977 o   0  0  0  0  0  0  0  0  0  0  0  0
    1.3443   -1.3358    1.0940 h   0  0  0  0  0  0  0  0  0  0  0  0
   -1.3475    1.8241   -0.7976 c   0  0  0  0  0  0  0  0  0  0  0  0
   -2.4648    1.4080   -1.0146 o   0  0  0  0  0  0  0  0  0  0  0  0
   -0.8959    2.9709   -1.3100 o   0  0  0  0  0  0  0  0  0  0  0  0
   -1.7944    3.7065   -2.1407 c   0  0  0  0  0  0  0  0  0  0  0  0
   -0.2678    0.8642    3.5585 h   0  0  0  0  0  0  0  0  0  0  0  0
   -0.1057   -0.5384    2.5201 h   0  0  0  0  0  0  0  0  0  0  0  0
    1.7237    1.8908    2.6875 h   0  0  0  0  0  0  0  0  0  0  0  0
    2.1256    0.1894    2.9214 h   0  0  0  0  0  0  0  0  0  0  0  0
   -2.1432   -4.4282   -0.4312 h   0  0  0  0  0  0  0  0  0  0  0  0
   -4.1277   -3.5829    0.7919 h   0  0  0  0  0  0  0  0  0  0  0  0
   -4.1089   -1.2912    1.7022 h   0  0  0  0  0  0  0  0  0  0  0  0
   -0.2458   -2.9255   -0.8619 h   0  0  0  0  0  0  0  0  0  0  0  0
   -3.0233    0.9113    1.5949 h   0  0  0  0  0  0  0  0  0  0  0  0
   -1.1516    2.2008    1.8198 h   0  0  0  0  0  0  0  0  0  0  0  0
    1.0035    2.7844    0.6772 h   0  0  0  0  0  0  0  0  0  0  0  0
    1.3797    2.0471   -0.8768 h   0  0  0  0  0  0  0  0  0  0  0  0
    3.7050    1.9782    1.0254 h   0  0  0  0  0  0  0  0  0  0  0  0
    5.1727    0.4119   -0.1564 h   0  0  0  0  0  0  0  0  0  0  0  0
    4.1365   -1.3667   -1.4792 h   0  0  0  0  0  0  0  0  0  0  0  0
    3.8774   -1.9080    0.1735 h   0  0  0  0  0  0  0  0  0  0  0  0
    2.2625    0.4975   -2.0220 h   0  0  0  0  0  0  0  0  0  0  0  0
    2.0534   -1.0679   -2.8609 h   0  0  0  0  0  0  0  0  0  0  0  0
   -0.2230   -1.2520   -2.2531 h   0  0  0  0  0  0  0  0  0  0  0  0
   -0.1369    0.5041   -2.3634 h   0  0  0  0  0  0  0  0  0  0  0  0
   -2.6638    4.0251   -1.5634 h   0  0  0  0  0  0  0  0  0  0  0  0
   -1.2318    4.5644   -2.4981 h   0  0  0  0  0  0  0  0  0  0  0  0
   -2.1331    3.0869   -2.9727 h   0  0  0  0  0  0  0  0  0  0  0  0
  1  2  1  0  0  0  0
  3  4  4  0  0  0  0
  4  5  4  0  0  0  0
  5  6  4  0  0  0  0
  6  7  4  0  0  0  0
  3  8  4  0  0  0  0
  7  8  4  0  0  0  0
  6  9  1  0  0  0  0
  1 10  1  0  0  0  0
  9 10  1  0  0  0  0
 10 11  1  0  0  0  0
  7 12  1  0  0  0  0
 11 12  1  0  0  0  0
 11 13  1  0  0  0  0
  2 14  1  0  0  0  0
 13 14  1  0  0  0  0
 12 15  1  0  0  0  0
 14 15  1  0  0  0  0
 14 16  1  0  0  0  0
 16 17  2  0  0  0  0
 17 18  1  0  0  0  0
 15 19  1  0  0  0  0
 18 19  1  0  0  0  0
 19 20  1  0  0  0  0
 12 21  1  0  0  0  0
 20 21  1  0  0  0  0
 19 22  1  0  0  0  0
 15 23  1  0  0  0  0
 11 24  1  0  0  0  0
 24 25  2  0  0  0  0
 24 26  1  0  0  0  0
 26 27  1  0  0  0  0
  1 28  1  0  0  0  0
  1 29  1  0  0  0  0
  2 30  1  0  0  0  0
  2 31  1  0  0  0  0
  3 32  1  0  0  0  0
  4 33  1  0  0  0  0
  5 34  1  0  0  0  0
  8 35  1  0  0  0  0
  9 36  1  0  0  0  0
 10 37  1  0  0  0  0
 13 38  1  0  0  0  0
 13 39  1  0  0  0  0
 16 40  1  0  0  0  0
 17 41  1  0  0  0  0
 18 42  1  0  0  0  0
 18 43  1  0  0  0  0
 20 44  1  0  0  0  0
 20 45  1  0  0  0  0
 21 46  1  0  0  0  0
 21 47  1  0  0  0  0
 27 48  1  0  0  0  0
 27 49  1  0  0  0  0
 27 50  1  0  0  0  0
M  END
