 xtb: 6.7.1 (edcfbbe)
          08092612003D

 54 57  0     0  0            999 V2000
    1.2829    1.5209    1.9379 c   0  0  0  0  0  0  0  0  0  0  0  0
    2.6788    1.3375    1.3580 c   0  0  0  0  0  0  0  0  0  0  0  0
    2.7348    0.6655   -0.0283 c   0  0  0  0  0  0  0  0  0  0  0  0
    1.6885   -0.5051   -0.1726 c   0  0  0  0  0  0  0  0  0  0  0  0
    0.2886   -0.3036    0.5301 c   0  0  0  0  0  0  0  0  0  0  0  0
    0.5411    0.1897    1.9681 c   0  0  0  0  0  0  0  0  0  0  0  0
    1.3919   -0.7886   -1.6512 c   0  0  0  0  0  0  0  0  0  0  0  0
    0.6044   -2.0848   -1.8055 c   0  0  0  0  0  0  0  0  0  0  0  0
   -0.6967   -2.0875   -0.9974 c   0  0  0  0  0  0  0  0  0  0  0  0
   -0.5472   -1.6567    0.4915 c   0  0  0  0  0  0  0  0  0  0  0  0
   -0.8055    0.6777   -0.0099 c   0  0  0  0  0  0  0  0  0  0  0  0
   -1.9385   -1.1948    0.9538 c   0  0  0  0  0  0  0  0  0  0  0  0
   -2.0598    0.1605    0.3512 c   0  0  0  0  0  0  0  0  0  0  0  0
   -3.2691    0.8037    0.1593 c   0  0  0  0  0  0  0  0  0  0  0  0
   -3.2675    2.0521   -0.4469 c   0  0  0  0  0  0  0  0  0  0  0  0
   -2.0608    2.5894   -0.8113 c   0  0  0  0  0  0  0  0  0  0  0  0
   -0.8327    1.9487   -0.5933 c   0  0  0  0  0  0  0  0  0  0  0  0
    0.2133    2.7101   -0.9827 o   0  0  0  0  0  0  0  0  0  0  0  0
   -4.4651    0.2596    0.5480 o   0  0  0  0  0  0  0  0  0  0  0  0
    2.4997    1.5977   -1.0804 o   0  0  0  0  0  0  0  0  0  0  0  0
    4.2043    0.2374   -0.2451 c   0  0  0  0  0  0  0  0  0  0  0  0
    2.4207   -1.7236    0.4191 c   0  0  0  0  0  0  0  0  0  0  0  0
   -1.3743   -3.4483   -1.1769 c   0  0  0  0  0  0  0  0  0  0  0  0
   -0.1756   -2.8238    1.4240 c   0  0  0  0  0  0  0  0  0  0  0  0
    1.3761    1.9115    2.9542 h   0  0  0  0  0  0  0  0  0  0  0  0
    0.7181    2.2512    1.3609 h   0  0  0  0  0  0  0  0  0  0  0  0
    3.2583    0.7240    2.0511 h   0  0  0  0  0  0  0  0  0  0  0  0
    3.1798    2.3085    1.2921 h   0  0  0  0  0  0  0  0  0  0  0  0
   -0.4055    0.3240    2.4909 h   0  0  0  0  0  0  0  0  0  0  0  0
    1.1369   -0.5311    2.5293 h   0  0  0  0  0  0  0  0  0  0  0  0
    0.8130    0.0350   -2.0702 h   0  0  0  0  0  0  0  0  0  0  0  0
    2.3215   -0.8595   -2.2182 h   0  0  0  0  0  0  0  0  0  0  0  0
    0.3450   -2.2115   -2.8597 h   0  0  0  0  0  0  0  0  0  0  0  0
    1.2246   -2.9389   -1.5315 h   0  0  0  0  0  0  0  0  0  0  0  0
   -1.3459   -1.3339   -1.4573 h   0  0  0  0  0  0  0  0  0  0  0  0
   -1.9876   -1.1517    2.0466 h   0  0  0  0  0  0  0  0  0  0  0  0
   -2.7148   -1.8831    0.6122 h   0  0  0  0  0  0  0  0  0  0  0  0
   -4.1965    2.5707   -0.6150 h   0  0  0  0  0  0  0  0  0  0  0  0
   -2.0086    3.5607   -1.2776 h   0  0  0  0  0  0  0  0  0  0  0  0
    1.0450    2.1913   -0.9938 h   0  0  0  0  0  0  0  0  0  0  0  0
   -4.3060   -0.5936    0.9663 h   0  0  0  0  0  0  0  0  0  0  0  0
    3.1209    2.3309   -0.9979 h   0  0  0  0  0  0  0  0  0  0  0  0
    4.8153    1.1415   -0.2507 h   0  0  0  0  0  0  0  0  0  0  0  0
    4.5893   -0.4070    0.5361 h   0  0  0  0  0  0  0  0  0  0  0  0
    4.3238   -0.2466   -1.2108 h   0  0  0  0  0  0  0  0  0  0  0  0
    2.7753   -1.5242    1.4259 h   0  0  0  0  0  0  0  0  0  0  0  0
    1.7972   -2.5948    0.4487 h   0  0  0  0  0  0  0  0  0  0  0  0
    3.2711   -1.9735   -0.2071 h   0  0  0  0  0  0  0  0  0  0  0  0
   -0.7215   -4.2624   -0.8710 h   0  0  0  0  0  0  0  0  0  0  0  0
   -2.2991   -3.5239   -0.6117 h   0  0  0  0  0  0  0  0  0  0  0  0
   -1.6149   -3.5940   -2.2278 h   0  0  0  0  0  0  0  0  0  0  0  0
   -1.0933   -3.2913    1.7791 h   0  0  0  0  0  0  0  0  0  0  0  0
    0.3912   -3.6132    0.9403 h   0  0  0  0  0  0  0  0  0  0  0  0
    0.3714   -2.4835    2.2974 h   0  0  0  0  0  0  0  0  0  0  0  0
  1  2  1  0  0  0  0
  2  3  1  0  0  0  0
  3  4  1  0  0  0  0
  4  5  1  0  0  0  0
  1  6  1  0  0  0  0
  5  6  1  0  0  0  0
  4  7  1  0  0  0  0
  7  8  1  0  0  0  0
  8  9  1  0  0  0  0
  5 10  1  0  0  0  0
  9 10  1  0  0  0  0
  5 11  1  0  0  0  0
 10 12  1  0  0  0  0
 11 13  4  0  0  0  0
 12 13  1  0  0  0  0
 13 14  4  0  0  0  0
 14 15  4  0  0  0  0
 15 16  4  0  0  0  0
 11 17  4  0  0  0  0
 16 17  4  0  0  0  0
 17 18  1  0  0  0  0
 14 19  1  0  0  0  0
  3 20  1  0  0  0  0
  3 21  1  0  0  0  0
  4 22  1  0  0  0  0
  9 23  1  0  0  0  0
 10 24  1  0  0  0  0
  1 25  1  0  0  0  0
  1 26  1  0  0  0  0
  2 27  1  0  0  0  0
  2 28  1  0  0  0  0
  6 29  1  0  0  0  0
  6 30  1  0  0  0  0
  7 31  1  0  0  0  0
  7 32  1  0  0  0  0
  8 33  1  0  0  0  0
  8 34  1  0  0  0  0
  9 35  1  0  0  0  0
 12 36  1  0  0  0  0
 12 37  1  0  0  0  0
 15 38  1  0  0  0  0
 16 39  1  0  0  0  0
 18 40  1  0  0  0  0
 19 41  1  0  0  0  0
 20 42  1  0  0  0  0
 21 43  1  0  0  0  0
 21 44  1  0  0  0  0
 21 45  1  0  0  0  0
 22 46  1  0  0  0  0
 22 47  1  0  0  0  0
 22 48  1  0  0  0  0
 23 49  1  0  0  0  0
 23 50  1  0  0  0  0
 23 51  1  0  0  0  0
 24 52  1  0  0  0  0
 24 53  1  0  0  0  0
 24 54  1  0  0  0  0
M  END
