 xtb: 6.7.1 (edcfbbe)
          08092622443D

 50 55  0     0  0            999 V2000
   -0.3591    0.1152   -2.5542 c   0  0  0  0  0  0  0  0  0  0  0  0
    1.1608    0.2076   -2.6434 c   0  0  0  0  0  0  0  0  0  0  0  0
   -2.6834    2.9143    0.7501 c   0  0  0  0  0  0  0  0  0  0  0  0
   -3.7709    2.3358    0.1178 c   0  0  0  0  0  0  0  0  0  0  0  0
   -3.6166    1.1235   -0.5200 c   0  0  0  0  0  0  0  0  0  0  0  0
   -2.3891    0.4598   -0.5137 c   0  0  0  0  0  0  0  0  0  0  0  0
   -1.2991    0.9993    0.1910 c   0  0  0  0  0  0  0  0  0  0  0  0
   -1.4749    2.2408    0.7899 c   0  0  0  0  0  0  0  0  0  0  0  0
   -2.2412   -0.7194   -1.2141 n   0  0  0  0  0  0  0  0  0  0  0  0
   -0.8887   -1.0045   -1.6330 c   0  0  0  0  0  0  0  0  0  0  0  0
   -0.0337   -1.1504   -0.3514 c   0  0  0  0  0  0  0  0  0  0  0  0
   -0.0115    0.2119    0.3921 c   0  0  0  0  0  0  0  0  0  0  0  0
    1.4073   -1.4256   -0.8067 c   0  0  0  0  0  0  0  0  0  0  0  0
    1.8355   -0.0297   -1.2850 c   0  0  0  0  0  0  0  0  0  0  0  0
    1.2795    0.8446   -0.1668 c   0  0  0  0  0  0  0  0  0  0  0  0
    3.3049    0.2582   -1.4278 c   0  0  0  0  0  0  0  0  0  0  0  0
    3.9609    1.1216   -0.6650 c   0  0  0  0  0  0  0  0  0  0  0  0
    3.3621    1.7421    0.5700 c   0  0  0  0  0  0  0  0  0  0  0  0
    2.2744    0.8326    0.9765 n   0  0  0  0  0  0  0  0  0  0  0  0
    1.4147    1.1810    2.1204 c   0  0  0  0  0  0  0  0  0  0  0  0
    0.2838    0.1681    1.9183 c   0  0  0  0  0  0  0  0  0  0  0  0
    2.8459   -0.3574    1.2725 o   0  0  0  0  0  0  0  0  0  0  0  0
    1.1452    1.8851   -0.4643 h   0  0  0  0  0  0  0  0  0  0  0  0
   -0.6228   -2.3075    0.4228 c   0  0  0  0  0  0  0  0  0  0  0  0
   -0.3348   -3.4671    0.2214 o   0  0  0  0  0  0  0  0  0  0  0  0
   -1.5382   -1.9283    1.3055 o   0  0  0  0  0  0  0  0  0  0  0  0
   -2.2035   -2.9592    2.0342 c   0  0  0  0  0  0  0  0  0  0  0  0
   -0.7753   -0.0322   -3.5533 h   0  0  0  0  0  0  0  0  0  0  0  0
   -0.7435    1.0648   -2.1774 h   0  0  0  0  0  0  0  0  0  0  0  0
    1.5445   -0.5461   -3.3334 h   0  0  0  0  0  0  0  0  0  0  0  0
    1.4364    1.1893   -3.0356 h   0  0  0  0  0  0  0  0  0  0  0  0
   -2.7761    3.8803    1.2230 h   0  0  0  0  0  0  0  0  0  0  0  0
   -4.7269    2.8378    0.1029 h   0  0  0  0  0  0  0  0  0  0  0  0
   -4.4460    0.6729   -1.0468 h   0  0  0  0  0  0  0  0  0  0  0  0
   -0.6536    2.7084    1.3069 h   0  0  0  0  0  0  0  0  0  0  0  0
   -2.9644   -0.9012   -1.8949 h   0  0  0  0  0  0  0  0  0  0  0  0
   -0.8805   -1.9668   -2.1547 h   0  0  0  0  0  0  0  0  0  0  0  0
    2.0270   -1.7385    0.0329 h   0  0  0  0  0  0  0  0  0  0  0  0
    1.4473   -2.1824   -1.5870 h   0  0  0  0  0  0  0  0  0  0  0  0
    3.8034   -0.2297   -2.2522 h   0  0  0  0  0  0  0  0  0  0  0  0
    5.0024    1.3409   -0.8445 h   0  0  0  0  0  0  0  0  0  0  0  0
    2.9908    2.7570    0.4011 h   0  0  0  0  0  0  0  0  0  0  0  0
    4.1040    1.7498    1.3712 h   0  0  0  0  0  0  0  0  0  0  0  0
    1.9698    1.0066    3.0411 h   0  0  0  0  0  0  0  0  0  0  0  0
    1.0910    2.2188    2.0598 h   0  0  0  0  0  0  0  0  0  0  0  0
   -0.5968    0.3930    2.5139 h   0  0  0  0  0  0  0  0  0  0  0  0
    0.6718   -0.8114    2.1975 h   0  0  0  0  0  0  0  0  0  0  0  0
   -2.9352   -2.4542    2.6584 h   0  0  0  0  0  0  0  0  0  0  0  0
   -2.6895   -3.6518    1.3452 h   0  0  0  0  0  0  0  0  0  0  0  0
   -1.4863   -3.5121    2.6433 h   0  0  0  0  0  0  0  0  0  0  0  0
  1  2  1  0  0  0  0
  3  4  4  0  0  0  0
  4  5  4  0  0  0  0
  5  6  4  0  0  0  0
  6  7  4  0  0  0  0
  3  8  4  0  0  0  0
  7  8  4  0  0  0  0
  6  9  1  0  0  0  0
  1 10  1  0  0  0  0
  9 10  1  0  0  0  0
 10 11  1  0  0  0  0
  7 12  1  0  0  0  0
 11 12  1  0  0  0  0
 11 13  1  0  0  0  0
  2 14  1  0  0  0  0
 13 14  1  0  0  0  0
 12 15  1  0  0  0  0
 14 15  1  0  0  0  0
 14 16  1  0  0  0  0
 16 17  2  0  0  0  0
 17 18  1  0  0  0  0
 15 19  1  0  0  0  0
 18 19  1  0  0  0  0
 19 20  1  0  0  0  0
 12 21  1  0  0  0  0
 20 21  1  0  0  0  0
 19 22  1  0  0  0  0
 15 23  1  0  0  0  0
 11 24  1  0  0  0  0
 24 25  2  0  0  0  0
 24 26  1  0  0  0  0
 26 27  1  0  0  0  0
  1 28  1  0  0  0  0
  1 29  1  0  0  0  0
  2 30  1  0  0  0  0
  2 31  1  0  0  0  0
  3 32  1  0  0  0  0
  4 33  1  0  0  0  0
  5 34  1  0  0  0  0
  8 35  1  0  0  0  0
  9 36  1  0  0  0  0
 10 37  1  0  0  0  0
 13 38  1  0  0  0  0
 13 39  1  0  0  0  0
 16 40  1  0  0  0  0
 17 41  1  0  0  0  0
 18 42  1  0  0  0  0
 18 43  1  0  0  0  0
 20 44  1  0  0  0  0
 20 45  1  0  0  0  0
 21 46  1  0  0  0  0
 21 47  1  0  0  0  0
 27 48  1  0  0  0  0
 27 49  1  0  0  0  0
 27 50  1  0  0  0  0
M  END
