 xtb: 6.7.1 (edcfbbe)
          08092617053D

 35 36  0     0  0            999 V2000
   -0.0204   -0.5599    0.2954 c   0  0  0  0  0  0  0  0  0  0  0  0
   -1.0007    0.5780    0.6938 c   0  0  0  0  0  0  0  0  0  0  0  0
   -0.3283    1.9632    0.5884 c   0  0  0  0  0  0  0  0  0  0  0  0
    0.5793    2.1498   -0.6271 c   0  0  0  0  0  0  0  0  0  0  0  0
    1.4586    0.9135   -0.8244 c   0  0  0  0  0  0  0  0  0  0  0  0
    0.5622   -0.2957   -1.1052 c   0  0  0  0  0  0  0  0  0  0  0  0
    1.2409   -0.4720    1.1759 c   0  0  0  0  0  0  0  0  0  0  0  0
    2.1162    0.5391    0.4795 c   0  0  0  0  0  0  0  0  0  0  0  0
    1.3687   -1.3507   -1.5998 o   0  0  0  0  0  0  0  0  0  0  0  0
   -0.7554   -1.9055    0.4128 c   0  0  0  0  0  0  0  0  0  0  0  0
    3.2631    1.0116    0.9318 c   0  0  0  0  0  0  0  0  0  0  0  0
   -2.3477    0.5280   -0.0038 c   0  0  0  0  0  0  0  0  0  0  0  0
   -2.5823    0.9248   -1.2456 c   0  0  0  0  0  0  0  0  0  0  0  0
   -1.2151    0.4202    1.7577 h   0  0  0  0  0  0  0  0  0  0  0  0
    0.0164   -3.0453    0.0791 o   0  0  0  0  0  0  0  0  0  0  0  0
   -3.4839    0.0666    0.8663 c   0  0  0  0  0  0  0  0  0  0  0  0
   -1.1052    2.7300    0.5867 h   0  0  0  0  0  0  0  0  0  0  0  0
    0.2794    2.1145    1.4827 h   0  0  0  0  0  0  0  0  0  0  0  0
   -0.0022    2.3255   -1.5322 h   0  0  0  0  0  0  0  0  0  0  0  0
    1.2119    3.0247   -0.4654 h   0  0  0  0  0  0  0  0  0  0  0  0
    2.1814    1.0672   -1.6272 h   0  0  0  0  0  0  0  0  0  0  0  0
   -0.2235   -0.0834   -1.8397 h   0  0  0  0  0  0  0  0  0  0  0  0
    1.7680   -1.4298    1.1950 h   0  0  0  0  0  0  0  0  0  0  0  0
    1.0168   -0.1922    2.2057 h   0  0  0  0  0  0  0  0  0  0  0  0
    0.9249   -2.1868   -1.3805 h   0  0  0  0  0  0  0  0  0  0  0  0
   -1.5923   -1.9203   -0.2897 h   0  0  0  0  0  0  0  0  0  0  0  0
   -1.1474   -2.0145    1.4324 h   0  0  0  0  0  0  0  0  0  0  0  0
    3.6691    0.7074    1.8825 h   0  0  0  0  0  0  0  0  0  0  0  0
    3.8440    1.7208    0.3672 h   0  0  0  0  0  0  0  0  0  0  0  0
   -3.5760    0.8837   -1.6618 h   0  0  0  0  0  0  0  0  0  0  0  0
   -1.8245    1.3097   -1.9020 h   0  0  0  0  0  0  0  0  0  0  0  0
    0.7274   -3.1411    0.7267 h   0  0  0  0  0  0  0  0  0  0  0  0
   -3.6244    0.7705    1.6871 h   0  0  0  0  0  0  0  0  0  0  0  0
   -4.4102    0.0092    0.3008 h   0  0  0  0  0  0  0  0  0  0  0  0
   -3.2778   -0.9099    1.2992 h   0  0  0  0  0  0  0  0  0  0  0  0
  1  2  1  0  0  0  0
  2  3  1  0  0  0  0
  3  4  1  0  0  0  0
  4  5  1  0  0  0  0
  1  6  1  0  0  0  0
  5  6  1  0  0  0  0
  1  7  1  0  0  0  0
  5  8  1  0  0  0  0
  7  8  1  0  0  0  0
  6  9  1  0  0  0  0
  1 10  1  0  0  0  0
  8 11  2  0  0  0  0
  2 12  1  0  0  0  0
 12 13  2  0  0  0  0
  2 14  1  0  0  0  0
 10 15  1  0  0  0  0
 12 16  1  0  0  0  0
  3 17  1  0  0  0  0
  3 18  1  0  0  0  0
  4 19  1  0  0  0  0
  4 20  1  0  0  0  0
  5 21  1  0  0  0  0
  6 22  1  0  0  0  0
  7 23  1  0  0  0  0
  7 24  1  0  0  0  0
  9 25  1  0  0  0  0
 10 26  1  0  0  0  0
 10 27  1  0  0  0  0
 11 28  1  0  0  0  0
 11 29  1  0  0  0  0
 13 30  1  0  0  0  0
 13 31  1  0  0  0  0
 15 32  1  0  0  0  0
 16 33  1  0  0  0  0
 16 34  1  0  0  0  0
 16 35  1  0  0  0  0
M  END
