 xtb: 6.7.1 (edcfbbe)
          08092617053D

 35 36  0     0  0            999 V2000
    0.0947   -0.6273    0.1004 c   0  0  0  0  0  0  0  0  0  0  0  0
   -0.9321    0.3960    0.6525 c   0  0  0  0  0  0  0  0  0  0  0  0
   -0.3159    1.8072    0.7388 c   0  0  0  0  0  0  0  0  0  0  0  0
    0.5824    2.2013   -0.4349 c   0  0  0  0  0  0  0  0  0  0  0  0
    1.5024    1.0397   -0.8197 c   0  0  0  0  0  0  0  0  0  0  0  0
    0.6333   -0.1395   -1.2596 c   0  0  0  0  0  0  0  0  0  0  0  0
    1.3646   -0.6074    0.9712 c   0  0  0  0  0  0  0  0  0  0  0  0
    2.1985    0.5102    0.4070 c   0  0  0  0  0  0  0  0  0  0  0  0
    1.4562   -1.0877   -1.9222 o   0  0  0  0  0  0  0  0  0  0  0  0
   -0.5061   -2.0328    0.0159 c   0  0  0  0  0  0  0  0  0  0  0  0
    3.3416    0.9537    0.8970 c   0  0  0  0  0  0  0  0  0  0  0  0
   -2.2726    0.3659   -0.0548 c   0  0  0  0  0  0  0  0  0  0  0  0
   -2.5473    0.9591   -1.2074 c   0  0  0  0  0  0  0  0  0  0  0  0
   -1.1332    0.0744    1.6802 h   0  0  0  0  0  0  0  0  0  0  0  0
   -0.9307   -2.4523    1.3016 o   0  0  0  0  0  0  0  0  0  0  0  0
   -3.3548   -0.3477    0.7050 c   0  0  0  0  0  0  0  0  0  0  0  0
   -1.1226    2.5356    0.8413 h   0  0  0  0  0  0  0  0  0  0  0  0
    0.2865    1.8554    1.6477 h   0  0  0  0  0  0  0  0  0  0  0  0
   -0.0080    2.4939   -1.3038 h   0  0  0  0  0  0  0  0  0  0  0  0
    1.1877    3.0617   -0.1431 h   0  0  0  0  0  0  0  0  0  0  0  0
    2.2024    1.3361   -1.6028 h   0  0  0  0  0  0  0  0  0  0  0  0
   -0.1744    0.1665   -1.9309 h   0  0  0  0  0  0  0  0  0  0  0  0
    1.9026   -1.5518    0.8605 h   0  0  0  0  0  0  0  0  0  0  0  0
    1.1401   -0.4774    2.0290 h   0  0  0  0  0  0  0  0  0  0  0  0
    0.8955   -1.7606   -2.3242 h   0  0  0  0  0  0  0  0  0  0  0  0
    0.2608   -2.7221   -0.3613 h   0  0  0  0  0  0  0  0  0  0  0  0
   -1.3566   -2.0303   -0.6819 h   0  0  0  0  0  0  0  0  0  0  0  0
    3.7759    0.5362    1.7901 h   0  0  0  0  0  0  0  0  0  0  0  0
    3.8907    1.7498    0.4231 h   0  0  0  0  0  0  0  0  0  0  0  0
   -3.5363    0.9075   -1.6347 h   0  0  0  0  0  0  0  0  0  0  0  0
   -1.8324    1.5302   -1.7704 h   0  0  0  0  0  0  0  0  0  0  0  0
   -1.1708   -3.3852    1.2571 h   0  0  0  0  0  0  0  0  0  0  0  0
   -2.9880   -1.2883    1.1083 h   0  0  0  0  0  0  0  0  0  0  0  0
   -3.6658    0.2682    1.5499 h   0  0  0  0  0  0  0  0  0  0  0  0
   -4.2239   -0.5344    0.0788 h   0  0  0  0  0  0  0  0  0  0  0  0
  1  2  1  0  0  0  0
  2  3  1  0  0  0  0
  3  4  1  0  0  0  0
  4  5  1  0  0  0  0
  1  6  1  0  0  0  0
  5  6  1  0  0  0  0
  1  7  1  0  0  0  0
  5  8  1  0  0  0  0
  7  8  1  0  0  0  0
  6  9  1  0  0  0  0
  1 10  1  0  0  0  0
  8 11  2  0  0  0  0
  2 12  1  0  0  0  0
 12 13  2  0  0  0  0
  2 14  1  0  0  0  0
 10 15  1  0  0  0  0
 12 16  1  0  0  0  0
  3 17  1  0  0  0  0
  3 18  1  0  0  0  0
  4 19  1  0  0  0  0
  4 20  1  0  0  0  0
  5 21  1  0  0  0  0
  6 22  1  0  0  0  0
  7 23  1  0  0  0  0
  7 24  1  0  0  0  0
  9 25  1  0  0  0  0
 10 26  1  0  0  0  0
 10 27  1  0  0  0  0
 11 28  1  0  0  0  0
 11 29  1  0  0  0  0
 13 30  1  0  0  0  0
 13 31  1  0  0  0  0
 15 32  1  0  0  0  0
 16 33  1  0  0  0  0
 16 34  1  0  0  0  0
 16 35  1  0  0  0  0
M  END
