 xtb: 6.7.1 (edcfbbe)
          08092617483D

 35 36  0     0  0            999 V2000
   -0.0775   -0.7834   -0.2894 c   0  0  0  0  0  0  0  0  0  0  0  0
    0.5320    0.5085   -0.8968 c   0  0  0  0  0  0  0  0  0  0  0  0
   -0.4576    1.6877   -0.7712 c   0  0  0  0  0  0  0  0  0  0  0  0
   -1.2468    1.7342    0.5362 c   0  0  0  0  0  0  0  0  0  0  0  0
   -1.8019    0.3495    0.8847 c   0  0  0  0  0  0  0  0  0  0  0  0
   -0.6194   -0.5908    1.1415 c   0  0  0  0  0  0  0  0  0  0  0  0
   -1.3907   -1.0954   -1.0362 c   0  0  0  0  0  0  0  0  0  0  0  0
   -2.4409   -0.2792   -0.3240 c   0  0  0  0  0  0  0  0  0  0  0  0
    0.2726   -0.1043    2.1106 o   0  0  0  0  0  0  0  0  0  0  0  0
    0.8921   -1.9669   -0.3607 c   0  0  0  0  0  0  0  0  0  0  0  0
   -3.6995   -0.1399   -0.6989 c   0  0  0  0  0  0  0  0  0  0  0  0
    1.9358    0.8697   -0.4457 c   0  0  0  0  0  0  0  0  0  0  0  0
    2.2294    1.5507    0.6508 c   0  0  0  0  0  0  0  0  0  0  0  0
    0.6249    0.2965   -1.9699 h   0  0  0  0  0  0  0  0  0  0  0  0
    1.9652   -1.7708    0.5454 o   0  0  0  0  0  0  0  0  0  0  0  0
    3.0165    0.5122   -1.4284 c   0  0  0  0  0  0  0  0  0  0  0  0
    0.0932    2.6216   -0.8965 h   0  0  0  0  0  0  0  0  0  0  0  0
   -1.1765    1.6175   -1.5906 h   0  0  0  0  0  0  0  0  0  0  0  0
   -0.6202    2.0628    1.3646 h   0  0  0  0  0  0  0  0  0  0  0  0
   -2.0696    2.4435    0.4288 h   0  0  0  0  0  0  0  0  0  0  0  0
   -2.4735    0.4177    1.7419 h   0  0  0  0  0  0  0  0  0  0  0  0
   -1.0073   -1.5684    1.4850 h   0  0  0  0  0  0  0  0  0  0  0  0
   -1.3356   -0.8599   -2.0988 h   0  0  0  0  0  0  0  0  0  0  0  0
   -1.6331   -2.1577   -0.9466 h   0  0  0  0  0  0  0  0  0  0  0  0
    1.1308   -0.5138    1.9277 h   0  0  0  0  0  0  0  0  0  0  0  0
    1.2680   -2.0791   -1.3865 h   0  0  0  0  0  0  0  0  0  0  0  0
    0.3503   -2.8851   -0.0911 h   0  0  0  0  0  0  0  0  0  0  0  0
   -4.0820   -0.6093   -1.5900 h   0  0  0  0  0  0  0  0  0  0  0  0
   -4.3968    0.4502   -0.1292 h   0  0  0  0  0  0  0  0  0  0  0  0
    3.2491    1.8098    0.8863 h   0  0  0  0  0  0  0  0  0  0  0  0
    1.4917    1.8557    1.3687 h   0  0  0  0  0  0  0  0  0  0  0  0
    2.5631   -2.5255    0.4920 h   0  0  0  0  0  0  0  0  0  0  0  0
    2.9861   -0.5450   -1.6816 h   0  0  0  0  0  0  0  0  0  0  0  0
    2.8781    1.0790   -2.3502 h   0  0  0  0  0  0  0  0  0  0  0  0
    3.9987    0.7433   -1.0246 h   0  0  0  0  0  0  0  0  0  0  0  0
  1  2  1  0  0  0  0
  2  3  1  0  0  0  0
  3  4  1  0  0  0  0
  4  5  1  0  0  0  0
  1  6  1  0  0  0  0
  5  6  1  0  0  0  0
  1  7  1  0  0  0  0
  5  8  1  0  0  0  0
  7  8  1  0  0  0  0
  6  9  1  0  0  0  0
  1 10  1  0  0  0  0
  8 11  2  0  0  0  0
  2 12  1  0  0  0  0
 12 13  2  0  0  0  0
  2 14  1  0  0  0  0
 10 15  1  0  0  0  0
 12 16  1  0  0  0  0
  3 17  1  0  0  0  0
  3 18  1  0  0  0  0
  4 19  1  0  0  0  0
  4 20  1  0  0  0  0
  5 21  1  0  0  0  0
  6 22  1  0  0  0  0
  7 23  1  0  0  0  0
  7 24  1  0  0  0  0
  9 25  1  0  0  0  0
 10 26  1  0  0  0  0
 10 27  1  0  0  0  0
 11 28  1  0  0  0  0
 11 29  1  0  0  0  0
 13 30  1  0  0  0  0
 13 31  1  0  0  0  0
 15 32  1  0  0  0  0
 16 33  1  0  0  0  0
 16 34  1  0  0  0  0
 16 35  1  0  0  0  0
M  END
