 xtb: 6.7.1 (edcfbbe)
          08092616283D

 35 36  0     0  0            999 V2000
   -0.0430   -0.5539    0.3072 c   0  0  0  0  0  0  0  0  0  0  0  0
   -1.0294    0.5773    0.6994 c   0  0  0  0  0  0  0  0  0  0  0  0
   -0.3441    1.9582    0.6225 c   0  0  0  0  0  0  0  0  0  0  0  0
    0.5825    2.1579   -0.5768 c   0  0  0  0  0  0  0  0  0  0  0  0
    1.4470    0.9153   -0.8070 c   0  0  0  0  0  0  0  0  0  0  0  0
    0.5342   -0.2780   -1.0970 c   0  0  0  0  0  0  0  0  0  0  0  0
    1.2156   -0.4696    1.1915 c   0  0  0  0  0  0  0  0  0  0  0  0
    2.1195    0.5047    0.4814 c   0  0  0  0  0  0  0  0  0  0  0  0
    1.2581   -1.3701   -1.6472 o   0  0  0  0  0  0  0  0  0  0  0  0
   -0.7379   -1.9205    0.4192 c   0  0  0  0  0  0  0  0  0  0  0  0
    3.2995    0.9235    0.9024 c   0  0  0  0  0  0  0  0  0  0  0  0
   -2.3592    0.5317   -0.0289 c   0  0  0  0  0  0  0  0  0  0  0  0
   -2.5742    0.9758   -1.2583 c   0  0  0  0  0  0  0  0  0  0  0  0
   -1.2661    0.4077    1.7565 h   0  0  0  0  0  0  0  0  0  0  0  0
    0.1272   -3.0168    0.2212 o   0  0  0  0  0  0  0  0  0  0  0  0
   -3.5036    0.0099    0.7942 c   0  0  0  0  0  0  0  0  0  0  0  0
   -1.1139    2.7319    0.6203 h   0  0  0  0  0  0  0  0  0  0  0  0
    0.2500    2.0917    1.5286 h   0  0  0  0  0  0  0  0  0  0  0  0
    0.0141    2.3676   -1.4831 h   0  0  0  0  0  0  0  0  0  0  0  0
    1.2270    3.0185   -0.3859 h   0  0  0  0  0  0  0  0  0  0  0  0
    2.1581    1.0945   -1.6175 h   0  0  0  0  0  0  0  0  0  0  0  0
   -0.2457   -0.0713   -1.8299 h   0  0  0  0  0  0  0  0  0  0  0  0
    1.6828   -1.4567    1.2598 h   0  0  0  0  0  0  0  0  0  0  0  0
    0.9869   -0.1525    2.2090 h   0  0  0  0  0  0  0  0  0  0  0  0
    2.0972   -1.4362   -1.1706 h   0  0  0  0  0  0  0  0  0  0  0  0
   -1.5644   -1.9627   -0.3034 h   0  0  0  0  0  0  0  0  0  0  0  0
   -1.1399   -2.0487    1.4282 h   0  0  0  0  0  0  0  0  0  0  0  0
    3.7154    0.5971    1.8411 h   0  0  0  0  0  0  0  0  0  0  0  0
    3.8937    1.6146    0.3285 h   0  0  0  0  0  0  0  0  0  0  0  0
   -3.5571    0.9312   -1.6988 h   0  0  0  0  0  0  0  0  0  0  0  0
   -1.8118    1.4064   -1.8802 h   0  0  0  0  0  0  0  0  0  0  0  0
    0.5313   -2.8917   -0.6542 h   0  0  0  0  0  0  0  0  0  0  0  0
   -3.2780   -0.9725    1.2029 h   0  0  0  0  0  0  0  0  0  0  0  0
   -3.6875    0.6834    1.6319 h   0  0  0  0  0  0  0  0  0  0  0  0
   -4.4123   -0.0575    0.2017 h   0  0  0  0  0  0  0  0  0  0  0  0
  1  2  1  0  0  0  0
  2  3  1  0  0  0  0
  3  4  1  0  0  0  0
  4  5  1  0  0  0  0
  1  6  1  0  0  0  0
  5  6  1  0  0  0  0
  1  7  1  0  0  0  0
  5  8  1  0  0  0  0
  7  8  1  0  0  0  0
  6  9  1  0  0  0  0
  1 10  1  0  0  0  0
  8 11  2  0  0  0  0
  2 12  1  0  0  0  0
 12 13  2  0  0  0  0
  2 14  1  0  0  0  0
 10 15  1  0  0  0  0
 12 16  1  0  0  0  0
  3 17  1  0  0  0  0
  3 18  1  0  0  0  0
  4 19  1  0  0  0  0
  4 20  1  0  0  0  0
  5 21  1  0  0  0  0
  6 22  1  0  0  0  0
  7 23  1  0  0  0  0
  7 24  1  0  0  0  0
  9 25  1  0  0  0  0
 10 26  1  0  0  0  0
 10 27  1  0  0  0  0
 11 28  1  0  0  0  0
 11 29  1  0  0  0  0
 13 30  1  0  0  0  0
 13 31  1  0  0  0  0
 15 32  1  0  0  0  0
 16 33  1  0  0  0  0
 16 34  1  0  0  0  0
 16 35  1  0  0  0  0
M  END
