 xtb: 6.7.1 (edcfbbe)
          08092617483D

 35 36  0     0  0            999 V2000
    0.0166   -0.7478   -0.0144 c   0  0  0  0  0  0  0  0  0  0  0  0
    0.6154    0.4699   -0.7649 c   0  0  0  0  0  0  0  0  0  0  0  0
   -0.4197    1.6088   -0.8741 c   0  0  0  0  0  0  0  0  0  0  0  0
   -1.3013    1.8034    0.3586 c   0  0  0  0  0  0  0  0  0  0  0  0
   -1.8249    0.4587    0.8731 c   0  0  0  0  0  0  0  0  0  0  0  0
   -0.6261   -0.3739    1.3394 c   0  0  0  0  0  0  0  0  0  0  0  0
   -1.2339   -1.2328   -0.7783 c   0  0  0  0  0  0  0  0  0  0  0  0
   -2.3577   -0.3669   -0.2647 c   0  0  0  0  0  0  0  0  0  0  0  0
    0.1533    0.3121    2.2768 o   0  0  0  0  0  0  0  0  0  0  0  0
    1.0474   -1.8720    0.1541 c   0  0  0  0  0  0  0  0  0  0  0  0
   -3.5884   -0.3352   -0.7407 c   0  0  0  0  0  0  0  0  0  0  0  0
    1.9713    0.9347   -0.2664 c   0  0  0  0  0  0  0  0  0  0  0  0
    2.1635    1.7741    0.7388 c   0  0  0  0  0  0  0  0  0  0  0  0
    0.7994    0.1150   -1.7871 h   0  0  0  0  0  0  0  0  0  0  0  0
    1.5473   -2.3747   -1.0611 o   0  0  0  0  0  0  0  0  0  0  0  0
    3.1305    0.4407   -1.0849 c   0  0  0  0  0  0  0  0  0  0  0  0
    0.1066    2.5389   -1.0958 h   0  0  0  0  0  0  0  0  0  0  0  0
   -1.0752    1.3940   -1.7216 h   0  0  0  0  0  0  0  0  0  0  0  0
   -0.7492    2.2793    1.1672 h   0  0  0  0  0  0  0  0  0  0  0  0
   -2.1427    2.4468    0.0941 h   0  0  0  0  0  0  0  0  0  0  0  0
   -2.5549    0.6190    1.6674 h   0  0  0  0  0  0  0  0  0  0  0  0
   -0.9974   -1.3105    1.7982 h   0  0  0  0  0  0  0  0  0  0  0  0
   -1.1277   -1.1556   -1.8614 h   0  0  0  0  0  0  0  0  0  0  0  0
   -1.4439   -2.2796   -0.5334 h   0  0  0  0  0  0  0  0  0  0  0  0
    1.0070   -0.1238    2.3585 h   0  0  0  0  0  0  0  0  0  0  0  0
    0.5932   -2.6869    0.7414 h   0  0  0  0  0  0  0  0  0  0  0  0
    1.9221   -1.5073    0.6997 h   0  0  0  0  0  0  0  0  0  0  0  0
   -3.8922   -0.9449   -1.5753 h   0  0  0  0  0  0  0  0  0  0  0  0
   -4.3422    0.3035   -0.3139 h   0  0  0  0  0  0  0  0  0  0  0  0
    3.1577    2.0881    1.0140 h   0  0  0  0  0  0  0  0  0  0  0  0
    1.3641    2.1745    1.3328 h   0  0  0  0  0  0  0  0  0  0  0  0
    0.8068   -2.6970   -1.5866 h   0  0  0  0  0  0  0  0  0  0  0  0
    3.0689   -0.6334   -1.2443 h   0  0  0  0  0  0  0  0  0  0  0  0
    3.1134    0.9191   -2.0652 h   0  0  0  0  0  0  0  0  0  0  0  0
    4.0774    0.6776   -0.6062 h   0  0  0  0  0  0  0  0  0  0  0  0
  1  2  1  0  0  0  0
  2  3  1  0  0  0  0
  3  4  1  0  0  0  0
  4  5  1  0  0  0  0
  1  6  1  0  0  0  0
  5  6  1  0  0  0  0
  1  7  1  0  0  0  0
  5  8  1  0  0  0  0
  7  8  1  0  0  0  0
  6  9  1  0  0  0  0
  1 10  1  0  0  0  0
  8 11  2  0  0  0  0
  2 12  1  0  0  0  0
 12 13  2  0  0  0  0
  2 14  1  0  0  0  0
 10 15  1  0  0  0  0
 12 16  1  0  0  0  0
  3 17  1  0  0  0  0
  3 18  1  0  0  0  0
  4 19  1  0  0  0  0
  4 20  1  0  0  0  0
  5 21  1  0  0  0  0
  6 22  1  0  0  0  0
  7 23  1  0  0  0  0
  7 24  1  0  0  0  0
  9 25  1  0  0  0  0
 10 26  1  0  0  0  0
 10 27  1  0  0  0  0
 11 28  1  0  0  0  0
 11 29  1  0  0  0  0
 13 30  1  0  0  0  0
 13 31  1  0  0  0  0
 15 32  1  0  0  0  0
 16 33  1  0  0  0  0
 16 34  1  0  0  0  0
 16 35  1  0  0  0  0
M  END
