 xtb: 6.7.1 (edcfbbe)
          08092617483D

 35 36  0     0  0            999 V2000
    0.1077   -0.6845   -0.2376 c   0  0  0  0  0  0  0  0  0  0  0  0
    0.6174    0.6298   -0.8967 c   0  0  0  0  0  0  0  0  0  0  0  0
   -0.4871    1.7091   -0.8622 c   0  0  0  0  0  0  0  0  0  0  0  0
   -1.2892    1.7776    0.4382 c   0  0  0  0  0  0  0  0  0  0  0  0
   -1.6968    0.3744    0.8949 c   0  0  0  0  0  0  0  0  0  0  0  0
   -0.4369   -0.4583    1.1885 c   0  0  0  0  0  0  0  0  0  0  0  0
   -1.1806   -1.1327   -0.9533 c   0  0  0  0  0  0  0  0  0  0  0  0
   -2.2930   -0.3897   -0.2588 c   0  0  0  0  0  0  0  0  0  0  0  0
    0.4622    0.0446    2.1398 o   0  0  0  0  0  0  0  0  0  0  0  0
    1.1825   -1.7841   -0.2709 c   0  0  0  0  0  0  0  0  0  0  0  0
   -3.5681   -0.4009   -0.6025 c   0  0  0  0  0  0  0  0  0  0  0  0
    1.9633    1.1537   -0.4251 c   0  0  0  0  0  0  0  0  0  0  0  0
    2.1322    2.0875    0.5035 c   0  0  0  0  0  0  0  0  0  0  0  0
    0.7717    0.3749   -1.9529 h   0  0  0  0  0  0  0  0  0  0  0  0
    0.7189   -3.0409    0.1776 o   0  0  0  0  0  0  0  0  0  0  0  0
    3.1526    0.6751   -1.2105 c   0  0  0  0  0  0  0  0  0  0  0  0
   -0.0371    2.6818   -1.0701 h   0  0  0  0  0  0  0  0  0  0  0  0
   -1.1908    1.4993   -1.6696 h   0  0  0  0  0  0  0  0  0  0  0  0
   -0.7281    2.2586    1.2409 h   0  0  0  0  0  0  0  0  0  0  0  0
   -2.1865    2.3759    0.2661 h   0  0  0  0  0  0  0  0  0  0  0  0
   -2.3641    0.4375    1.7569 h   0  0  0  0  0  0  0  0  0  0  0  0
   -0.7648   -1.4205    1.6053 h   0  0  0  0  0  0  0  0  0  0  0  0
   -1.1566   -0.9373   -2.0252 h   0  0  0  0  0  0  0  0  0  0  0  0
   -1.3086   -2.2103   -0.8187 h   0  0  0  0  0  0  0  0  0  0  0  0
    0.9323    0.7942    1.7454 h   0  0  0  0  0  0  0  0  0  0  0  0
    2.0435   -1.4707    0.3322 h   0  0  0  0  0  0  0  0  0  0  0  0
    1.5006   -1.9580   -1.3020 h   0  0  0  0  0  0  0  0  0  0  0  0
   -3.9211   -0.9614   -1.4520 h   0  0  0  0  0  0  0  0  0  0  0  0
   -4.3097    0.1487   -0.0477 h   0  0  0  0  0  0  0  0  0  0  0  0
    3.1176    2.4469    0.7514 h   0  0  0  0  0  0  0  0  0  0  0  0
    1.3290    2.5696    1.0329 h   0  0  0  0  0  0  0  0  0  0  0  0
    0.5392   -2.9796    1.1240 h   0  0  0  0  0  0  0  0  0  0  0  0
    4.0803    0.9692   -0.7262 h   0  0  0  0  0  0  0  0  0  0  0  0
    3.1527   -0.4017   -1.3463 h   0  0  0  0  0  0  0  0  0  0  0  0
    3.1266    1.1314   -2.2013 h   0  0  0  0  0  0  0  0  0  0  0  0
  1  2  1  0  0  0  0
  2  3  1  0  0  0  0
  3  4  1  0  0  0  0
  4  5  1  0  0  0  0
  1  6  1  0  0  0  0
  5  6  1  0  0  0  0
  1  7  1  0  0  0  0
  5  8  1  0  0  0  0
  7  8  1  0  0  0  0
  6  9  1  0  0  0  0
  1 10  1  0  0  0  0
  8 11  2  0  0  0  0
  2 12  1  0  0  0  0
 12 13  2  0  0  0  0
  2 14  1  0  0  0  0
 10 15  1  0  0  0  0
 12 16  1  0  0  0  0
  3 17  1  0  0  0  0
  3 18  1  0  0  0  0
  4 19  1  0  0  0  0
  4 20  1  0  0  0  0
  5 21  1  0  0  0  0
  6 22  1  0  0  0  0
  7 23  1  0  0  0  0
  7 24  1  0  0  0  0
  9 25  1  0  0  0  0
 10 26  1  0  0  0  0
 10 27  1  0  0  0  0
 11 28  1  0  0  0  0
 11 29  1  0  0  0  0
 13 30  1  0  0  0  0
 13 31  1  0  0  0  0
 15 32  1  0  0  0  0
 16 33  1  0  0  0  0
 16 34  1  0  0  0  0
 16 35  1  0  0  0  0
M  END
