 xtb: 6.7.1 (edcfbbe)
          08092615283D

 35 36  0     0  0            999 V2000
    0.0895   -0.6487    0.0811 c   0  0  0  0  0  0  0  0  0  0  0  0
   -0.9532    0.3110    0.7183 c   0  0  0  0  0  0  0  0  0  0  0  0
   -0.3501    1.7150    0.9027 c   0  0  0  0  0  0  0  0  0  0  0  0
    0.4746    2.2082   -0.2868 c   0  0  0  0  0  0  0  0  0  0  0  0
    1.4293    1.1092   -0.7661 c   0  0  0  0  0  0  0  0  0  0  0  0
    0.6000   -0.0829   -1.2533 c   0  0  0  0  0  0  0  0  0  0  0  0
    1.3811   -0.6411    0.9273 c   0  0  0  0  0  0  0  0  0  0  0  0
    2.1755    0.5279    0.4072 c   0  0  0  0  0  0  0  0  0  0  0  0
    1.3932   -1.0613   -1.9085 o   0  0  0  0  0  0  0  0  0  0  0  0
   -0.4687   -2.0686   -0.0743 c   0  0  0  0  0  0  0  0  0  0  0  0
    3.3273    0.9636    0.8838 c   0  0  0  0  0  0  0  0  0  0  0  0
   -2.3121    0.3063    0.0403 c   0  0  0  0  0  0  0  0  0  0  0  0
   -3.2380   -0.5507    0.4505 c   0  0  0  0  0  0  0  0  0  0  0  0
   -1.1370   -0.0961    1.7198 h   0  0  0  0  0  0  0  0  0  0  0  0
   -0.8240   -2.6643    1.1564 o   0  0  0  0  0  0  0  0  0  0  0  0
   -2.6373    1.2957   -1.0408 c   0  0  0  0  0  0  0  0  0  0  0  0
   -1.1490    2.4245    1.1243 h   0  0  0  0  0  0  0  0  0  0  0  0
    0.3043    1.6931    1.7761 h   0  0  0  0  0  0  0  0  0  0  0  0
   -0.1665    2.5061   -1.1163 h   0  0  0  0  0  0  0  0  0  0  0  0
    1.0530    3.0819    0.0206 h   0  0  0  0  0  0  0  0  0  0  0  0
    2.0987    1.4980   -1.5385 h   0  0  0  0  0  0  0  0  0  0  0  0
   -0.2150    0.2135   -1.9221 h   0  0  0  0  0  0  0  0  0  0  0  0
    1.9426   -1.5614    0.7446 h   0  0  0  0  0  0  0  0  0  0  0  0
    1.1872   -0.5616    1.9972 h   0  0  0  0  0  0  0  0  0  0  0  0
    1.8680   -0.6289   -2.6294 h   0  0  0  0  0  0  0  0  0  0  0  0
    0.2739   -2.6836   -0.5975 h   0  0  0  0  0  0  0  0  0  0  0  0
   -1.3843   -2.0512   -0.6688 h   0  0  0  0  0  0  0  0  0  0  0  0
    3.8000    0.5041    1.7358 h   0  0  0  0  0  0  0  0  0  0  0  0
    3.8443    1.7990    0.4423 h   0  0  0  0  0  0  0  0  0  0  0  0
   -4.2181   -0.5864    0.0033 h   0  0  0  0  0  0  0  0  0  0  0  0
   -3.0485   -1.2684    1.2307 h   0  0  0  0  0  0  0  0  0  0  0  0
   -0.0292   -2.7125    1.7033 h   0  0  0  0  0  0  0  0  0  0  0  0
   -2.0229    1.1400   -1.9252 h   0  0  0  0  0  0  0  0  0  0  0  0
   -3.6794    1.1903   -1.3339 h   0  0  0  0  0  0  0  0  0  0  0  0
   -2.4825    2.3160   -0.6965 h   0  0  0  0  0  0  0  0  0  0  0  0
  1  2  1  0  0  0  0
  2  3  1  0  0  0  0
  3  4  1  0  0  0  0
  4  5  1  0  0  0  0
  1  6  1  0  0  0  0
  5  6  1  0  0  0  0
  1  7  1  0  0  0  0
  5  8  1  0  0  0  0
  7  8  1  0  0  0  0
  6  9  1  0  0  0  0
  1 10  1  0  0  0  0
  8 11  2  0  0  0  0
  2 12  1  0  0  0  0
 12 13  2  0  0  0  0
  2 14  1  0  0  0  0
 10 15  1  0  0  0  0
 12 16  1  0  0  0  0
  3 17  1  0  0  0  0
  3 18  1  0  0  0  0
  4 19  1  0  0  0  0
  4 20  1  0  0  0  0
  5 21  1  0  0  0  0
  6 22  1  0  0  0  0
  7 23  1  0  0  0  0
  7 24  1  0  0  0  0
  9 25  1  0  0  0  0
 10 26  1  0  0  0  0
 10 27  1  0  0  0  0
 11 28  1  0  0  0  0
 11 29  1  0  0  0  0
 13 30  1  0  0  0  0
 13 31  1  0  0  0  0
 15 32  1  0  0  0  0
 16 33  1  0  0  0  0
 16 34  1  0  0  0  0
 16 35  1  0  0  0  0
M  END
