 xtb: 6.7.1 (edcfbbe)
          08092615283D

 35 36  0     0  0            999 V2000
    0.0910   -0.6172    0.0974 c   0  0  0  0  0  0  0  0  0  0  0  0
   -0.9332    0.4032    0.6550 c   0  0  0  0  0  0  0  0  0  0  0  0
   -0.3208    1.8158    0.7376 c   0  0  0  0  0  0  0  0  0  0  0  0
    0.5717    2.2074   -0.4407 c   0  0  0  0  0  0  0  0  0  0  0  0
    1.4963    1.0491   -0.8246 c   0  0  0  0  0  0  0  0  0  0  0  0
    0.6343   -0.1416   -1.2580 c   0  0  0  0  0  0  0  0  0  0  0  0
    1.3653   -0.5996    0.9653 c   0  0  0  0  0  0  0  0  0  0  0  0
    2.1934    0.5255    0.4045 c   0  0  0  0  0  0  0  0  0  0  0  0
    1.3973   -1.1768   -1.8456 o   0  0  0  0  0  0  0  0  0  0  0  0
   -0.5130   -2.0233   -0.0068 c   0  0  0  0  0  0  0  0  0  0  0  0
    3.3317    0.9774    0.8968 c   0  0  0  0  0  0  0  0  0  0  0  0
   -2.2746    0.3661   -0.0490 c   0  0  0  0  0  0  0  0  0  0  0  0
   -2.5566    0.9782   -1.1888 c   0  0  0  0  0  0  0  0  0  0  0  0
   -1.1354    0.0864    1.6851 h   0  0  0  0  0  0  0  0  0  0  0  0
   -0.9673   -2.5311    1.2271 o   0  0  0  0  0  0  0  0  0  0  0  0
   -3.3391   -0.3870    0.6949 c   0  0  0  0  0  0  0  0  0  0  0  0
   -1.1285    2.5431    0.8397 h   0  0  0  0  0  0  0  0  0  0  0  0
    0.2854    1.8714    1.6444 h   0  0  0  0  0  0  0  0  0  0  0  0
   -0.0246    2.4918   -1.3085 h   0  0  0  0  0  0  0  0  0  0  0  0
    1.1725    3.0741   -0.1563 h   0  0  0  0  0  0  0  0  0  0  0  0
    2.1987    1.3656   -1.6014 h   0  0  0  0  0  0  0  0  0  0  0  0
   -0.1725    0.1489   -1.9416 h   0  0  0  0  0  0  0  0  0  0  0  0
    1.9088   -1.5396    0.8363 h   0  0  0  0  0  0  0  0  0  0  0  0
    1.1567   -0.4643    2.0276 h   0  0  0  0  0  0  0  0  0  0  0  0
    1.8668   -0.8138   -2.6040 h   0  0  0  0  0  0  0  0  0  0  0  0
    0.2353   -2.6917   -0.4496 h   0  0  0  0  0  0  0  0  0  0  0  0
   -1.3834   -2.0028   -0.6658 h   0  0  0  0  0  0  0  0  0  0  0  0
    3.7683    0.5644    1.7905 h   0  0  0  0  0  0  0  0  0  0  0  0
    3.8743    1.7797    0.4260 h   0  0  0  0  0  0  0  0  0  0  0  0
   -3.5432    0.9191   -1.6189 h   0  0  0  0  0  0  0  0  0  0  0  0
   -1.8498    1.5696   -1.7411 h   0  0  0  0  0  0  0  0  0  0  0  0
   -0.2113   -2.6013    1.8200 h   0  0  0  0  0  0  0  0  0  0  0  0
   -4.2280   -0.5200    0.0836 h   0  0  0  0  0  0  0  0  0  0  0  0
   -2.9729   -1.3598    1.0136 h   0  0  0  0  0  0  0  0  0  0  0  0
   -3.6179    0.1696    1.5907 h   0  0  0  0  0  0  0  0  0  0  0  0
  1  2  1  0  0  0  0
  2  3  1  0  0  0  0
  3  4  1  0  0  0  0
  4  5  1  0  0  0  0
  1  6  1  0  0  0  0
  5  6  1  0  0  0  0
  1  7  1  0  0  0  0
  5  8  1  0  0  0  0
  7  8  1  0  0  0  0
  6  9  1  0  0  0  0
  1 10  1  0  0  0  0
  8 11  2  0  0  0  0
  2 12  1  0  0  0  0
 12 13  2  0  0  0  0
  2 14  1  0  0  0  0
 10 15  1  0  0  0  0
 12 16  1  0  0  0  0
  3 17  1  0  0  0  0
  3 18  1  0  0  0  0
  4 19  1  0  0  0  0
  4 20  1  0  0  0  0
  5 21  1  0  0  0  0
  6 22  1  0  0  0  0
  7 23  1  0  0  0  0
  7 24  1  0  0  0  0
  9 25  1  0  0  0  0
 10 26  1  0  0  0  0
 10 27  1  0  0  0  0
 11 28  1  0  0  0  0
 11 29  1  0  0  0  0
 13 30  1  0  0  0  0
 13 31  1  0  0  0  0
 15 32  1  0  0  0  0
 16 33  1  0  0  0  0
 16 34  1  0  0  0  0
 16 35  1  0  0  0  0
M  END
