 xtb: 6.7.1 (edcfbbe)
          08092617483D

 35 36  0     0  0            999 V2000
    0.0100   -0.7568   -0.0412 c   0  0  0  0  0  0  0  0  0  0  0  0
    0.6251    0.4743   -0.7689 c   0  0  0  0  0  0  0  0  0  0  0  0
   -0.4240    1.5986   -0.9006 c   0  0  0  0  0  0  0  0  0  0  0  0
   -1.3038    1.8123    0.3326 c   0  0  0  0  0  0  0  0  0  0  0  0
   -1.8093    0.4724    0.8750 c   0  0  0  0  0  0  0  0  0  0  0  0
   -0.6111   -0.3850    1.3213 c   0  0  0  0  0  0  0  0  0  0  0  0
   -1.2519   -1.2061   -0.8070 c   0  0  0  0  0  0  0  0  0  0  0  0
   -2.3683   -0.3564   -0.2500 c   0  0  0  0  0  0  0  0  0  0  0  0
    0.2463    0.1695    2.2794 o   0  0  0  0  0  0  0  0  0  0  0  0
    1.0084   -1.9076    0.1314 c   0  0  0  0  0  0  0  0  0  0  0  0
   -3.6169   -0.3428   -0.6796 c   0  0  0  0  0  0  0  0  0  0  0  0
    1.9592    0.9668   -0.2363 c   0  0  0  0  0  0  0  0  0  0  0  0
    2.1143    1.9791    0.6089 c   0  0  0  0  0  0  0  0  0  0  0  0
    0.8469    0.1253   -1.7857 h   0  0  0  0  0  0  0  0  0  0  0  0
    1.5396   -2.3942   -1.0843 o   0  0  0  0  0  0  0  0  0  0  0  0
    3.1704    0.3302   -0.8582 c   0  0  0  0  0  0  0  0  0  0  0  0
    0.0871    2.5291   -1.1546 h   0  0  0  0  0  0  0  0  0  0  0  0
   -1.0832    1.3550   -1.7362 h   0  0  0  0  0  0  0  0  0  0  0  0
   -0.7708    2.3321    1.1297 h   0  0  0  0  0  0  0  0  0  0  0  0
   -2.1571    2.4336    0.0523 h   0  0  0  0  0  0  0  0  0  0  0  0
   -2.5256    0.6378    1.6819 h   0  0  0  0  0  0  0  0  0  0  0  0
   -0.9942   -1.2989    1.7958 h   0  0  0  0  0  0  0  0  0  0  0  0
   -1.1571   -1.0912   -1.8874 h   0  0  0  0  0  0  0  0  0  0  0  0
   -1.4634   -2.2588   -0.5971 h   0  0  0  0  0  0  0  0  0  0  0  0
    0.7959    0.8388    1.8429 h   0  0  0  0  0  0  0  0  0  0  0  0
    0.5124   -2.7243    0.6753 h   0  0  0  0  0  0  0  0  0  0  0  0
    1.8608   -1.5807    0.7303 h   0  0  0  0  0  0  0  0  0  0  0  0
   -3.9414   -0.9557   -1.5042 h   0  0  0  0  0  0  0  0  0  0  0  0
   -4.3655    0.2821   -0.2231 h   0  0  0  0  0  0  0  0  0  0  0  0
    3.0997    2.3002    0.9054 h   0  0  0  0  0  0  0  0  0  0  0  0
    1.3063    2.5621    1.0152 h   0  0  0  0  0  0  0  0  0  0  0  0
    0.8063   -2.7097   -1.6277 h   0  0  0  0  0  0  0  0  0  0  0  0
    3.0274   -0.7297   -1.0421 h   0  0  0  0  0  0  0  0  0  0  0  0
    3.3581    0.8050   -1.8230 h   0  0  0  0  0  0  0  0  0  0  0  0
    4.0506    0.4722   -0.2361 h   0  0  0  0  0  0  0  0  0  0  0  0
  1  2  1  0  0  0  0
  2  3  1  0  0  0  0
  3  4  1  0  0  0  0
  4  5  1  0  0  0  0
  1  6  1  0  0  0  0
  5  6  1  0  0  0  0
  1  7  1  0  0  0  0
  5  8  1  0  0  0  0
  7  8  1  0  0  0  0
  6  9  1  0  0  0  0
  1 10  1  0  0  0  0
  8 11  2  0  0  0  0
  2 12  1  0  0  0  0
 12 13  2  0  0  0  0
  2 14  1  0  0  0  0
 10 15  1  0  0  0  0
 12 16  1  0  0  0  0
  3 17  1  0  0  0  0
  3 18  1  0  0  0  0
  4 19  1  0  0  0  0
  4 20  1  0  0  0  0
  5 21  1  0  0  0  0
  6 22  1  0  0  0  0
  7 23  1  0  0  0  0
  7 24  1  0  0  0  0
  9 25  1  0  0  0  0
 10 26  1  0  0  0  0
 10 27  1  0  0  0  0
 11 28  1  0  0  0  0
 11 29  1  0  0  0  0
 13 30  1  0  0  0  0
 13 31  1  0  0  0  0
 15 32  1  0  0  0  0
 16 33  1  0  0  0  0
 16 34  1  0  0  0  0
 16 35  1  0  0  0  0
M  END
