 xtb: 6.7.1 (edcfbbe)
          08092618203D

 35 36  0     0  0            999 V2000
    0.0295   -0.7775   -0.0334 c   0  0  0  0  0  0  0  0  0  0  0  0
    0.6546    0.4122   -0.8181 c   0  0  0  0  0  0  0  0  0  0  0  0
   -0.3958    1.5199   -1.0141 c   0  0  0  0  0  0  0  0  0  0  0  0
   -1.2412    1.8095    0.2258 c   0  0  0  0  0  0  0  0  0  0  0  0
   -1.7713    0.5054    0.8335 c   0  0  0  0  0  0  0  0  0  0  0  0
   -0.5883   -0.3427    1.3125 c   0  0  0  0  0  0  0  0  0  0  0  0
   -1.2428   -1.2515   -0.7701 c   0  0  0  0  0  0  0  0  0  0  0  0
   -2.3489   -0.3678   -0.2474 c   0  0  0  0  0  0  0  0  0  0  0  0
    0.2390    0.3474    2.2156 o   0  0  0  0  0  0  0  0  0  0  0  0
    1.0221   -1.9326    0.1513 c   0  0  0  0  0  0  0  0  0  0  0  0
   -3.5999   -0.3602   -0.6697 c   0  0  0  0  0  0  0  0  0  0  0  0
    1.9909    0.9087   -0.2894 c   0  0  0  0  0  0  0  0  0  0  0  0
    3.1048    0.2834   -0.6499 c   0  0  0  0  0  0  0  0  0  0  0  0
    0.8825    0.0035   -1.8111 h   0  0  0  0  0  0  0  0  0  0  0  0
    1.4717   -2.4923   -1.0641 o   0  0  0  0  0  0  0  0  0  0  0  0
    2.0642    2.1349    0.5708 c   0  0  0  0  0  0  0  0  0  0  0  0
    0.0981    2.4324   -1.3492 h   0  0  0  0  0  0  0  0  0  0  0  0
   -1.0713    1.2146   -1.8162 h   0  0  0  0  0  0  0  0  0  0  0  0
   -0.6633    2.3309    0.9865 h   0  0  0  0  0  0  0  0  0  0  0  0
   -2.0836    2.4435   -0.0579 h   0  0  0  0  0  0  0  0  0  0  0  0
   -2.4771    0.7236    1.6363 h   0  0  0  0  0  0  0  0  0  0  0  0
   -0.9807   -1.2456    1.8138 h   0  0  0  0  0  0  0  0  0  0  0  0
   -1.1524   -1.1874   -1.8548 h   0  0  0  0  0  0  0  0  0  0  0  0
   -1.4614   -2.2921   -0.5102 h   0  0  0  0  0  0  0  0  0  0  0  0
    1.0036   -0.2053    2.4149 h   0  0  0  0  0  0  0  0  0  0  0  0
    0.5524   -2.7137    0.7692 h   0  0  0  0  0  0  0  0  0  0  0  0
    1.9264   -1.5867    0.6578 h   0  0  0  0  0  0  0  0  0  0  0  0
   -3.9356   -1.0051   -1.4649 h   0  0  0  0  0  0  0  0  0  0  0  0
   -4.3383    0.2933   -0.2376 h   0  0  0  0  0  0  0  0  0  0  0  0
    4.0734    0.6084   -0.3056 h   0  0  0  0  0  0  0  0  0  0  0  0
    3.0991   -0.5827   -1.2907 h   0  0  0  0  0  0  0  0  0  0  0  0
    0.6993   -2.7853   -1.5650 h   0  0  0  0  0  0  0  0  0  0  0  0
    1.4533    2.0242    1.4619 h   0  0  0  0  0  0  0  0  0  0  0  0
    3.0935    2.3155    0.8722 h   0  0  0  0  0  0  0  0  0  0  0  0
    1.7135    3.0095    0.0252 h   0  0  0  0  0  0  0  0  0  0  0  0
  1  2  1  0  0  0  0
  2  3  1  0  0  0  0
  3  4  1  0  0  0  0
  4  5  1  0  0  0  0
  1  6  1  0  0  0  0
  5  6  1  0  0  0  0
  1  7  1  0  0  0  0
  5  8  1  0  0  0  0
  7  8  1  0  0  0  0
  6  9  1  0  0  0  0
  1 10  1  0  0  0  0
  8 11  2  0  0  0  0
  2 12  1  0  0  0  0
 12 13  2  0  0  0  0
  2 14  1  0  0  0  0
 10 15  1  0  0  0  0
 12 16  1  0  0  0  0
  3 17  1  0  0  0  0
  3 18  1  0  0  0  0
  4 19  1  0  0  0  0
  4 20  1  0  0  0  0
  5 21  1  0  0  0  0
  6 22  1  0  0  0  0
  7 23  1  0  0  0  0
  7 24  1  0  0  0  0
  9 25  1  0  0  0  0
 10 26  1  0  0  0  0
 10 27  1  0  0  0  0
 11 28  1  0  0  0  0
 11 29  1  0  0  0  0
 13 30  1  0  0  0  0
 13 31  1  0  0  0  0
 15 32  1  0  0  0  0
 16 33  1  0  0  0  0
 16 34  1  0  0  0  0
 16 35  1  0  0  0  0
M  END
