 xtb: 6.7.1 (edcfbbe)
          08092601433D

 42 44  0     0  0            999 V2000
   -0.8324    1.5597    0.3371 c   0  0  0  0  0  0  0  0  0  0  0  0
   -2.2992    1.2260    0.0411 c   0  0  0  0  0  0  0  0  0  0  0  0
   -2.6102    0.3523   -1.1737 c   0  0  0  0  0  0  0  0  0  0  0  0
   -1.8345   -0.9633   -1.2493 c   0  0  0  0  0  0  0  0  0  0  0  0
   -1.5216   -1.5686    0.1188 c   0  0  0  0  0  0  0  0  0  0  0  0
   -0.1826   -1.0484    0.6582 c   0  0  0  0  0  0  0  0  0  0  0  0
    0.0073    0.4507    1.0160 c   0  0  0  0  0  0  0  0  0  0  0  0
   -0.0073    1.9368   -0.8967 c   0  0  0  0  0  0  0  0  0  0  0  0
    1.4307    1.9051   -0.3930 c   0  0  0  0  0  0  0  0  0  0  0  0
    1.4780    0.7334    0.6001 c   0  0  0  0  0  0  0  0  0  0  0  0
    0.8252   -1.3625   -0.2798 o   0  0  0  0  0  0  0  0  0  0  0  0
    1.9910   -0.6256    0.0462 c   0  0  0  0  0  0  0  0  0  0  0  0
   -0.1248    0.5415    2.0970 h   0  0  0  0  0  0  0  0  0  0  0  0
    2.0923    1.0071    1.4600 h   0  0  0  0  0  0  0  0  0  0  0  0
    0.0187   -1.6106    1.5892 h   0  0  0  0  0  0  0  0  0  0  0  0
   -1.4370   -3.0929    0.0188 c   0  0  0  0  0  0  0  0  0  0  0  0
    2.8409   -0.5634   -1.2216 c   0  0  0  0  0  0  0  0  0  0  0  0
    2.7963   -1.3482    1.1409 c   0  0  0  0  0  0  0  0  0  0  0  0
   -0.8632    2.7511    1.3125 c   0  0  0  0  0  0  0  0  0  0  0  0
   -2.7259    0.7705    0.9372 h   0  0  0  0  0  0  0  0  0  0  0  0
   -2.8263    2.1729   -0.1083 h   0  0  0  0  0  0  0  0  0  0  0  0
   -3.6807    0.1315   -1.1355 h   0  0  0  0  0  0  0  0  0  0  0  0
   -2.4367    0.9239   -2.0877 h   0  0  0  0  0  0  0  0  0  0  0  0
   -0.8856   -0.8289   -1.7682 h   0  0  0  0  0  0  0  0  0  0  0  0
   -2.4195   -1.6748   -1.8356 h   0  0  0  0  0  0  0  0  0  0  0  0
   -2.3079   -1.3187    0.8360 h   0  0  0  0  0  0  0  0  0  0  0  0
   -0.2881    2.9103   -1.2982 h   0  0  0  0  0  0  0  0  0  0  0  0
   -0.1343    1.1897   -1.6772 h   0  0  0  0  0  0  0  0  0  0  0  0
    2.1478    1.8028   -1.2025 h   0  0  0  0  0  0  0  0  0  0  0  0
    1.6659    2.8338    0.1287 h   0  0  0  0  0  0  0  0  0  0  0  0
   -1.2167   -3.5314    0.9900 h   0  0  0  0  0  0  0  0  0  0  0  0
   -2.3796   -3.5023   -0.3374 h   0  0  0  0  0  0  0  0  0  0  0  0
   -0.6460   -3.3701   -0.6724 h   0  0  0  0  0  0  0  0  0  0  0  0
    2.2487   -0.2106   -2.0608 h   0  0  0  0  0  0  0  0  0  0  0  0
    3.7030    0.0820   -1.0778 h   0  0  0  0  0  0  0  0  0  0  0  0
    3.1875   -1.5664   -1.4576 h   0  0  0  0  0  0  0  0  0  0  0  0
    3.7503   -0.8493    1.2903 h   0  0  0  0  0  0  0  0  0  0  0  0
    2.2552   -1.3552    2.0839 h   0  0  0  0  0  0  0  0  0  0  0  0
    2.9783   -2.3772    0.8398 h   0  0  0  0  0  0  0  0  0  0  0  0
    0.1251    2.9778    1.7009 h   0  0  0  0  0  0  0  0  0  0  0  0
   -1.2481    3.6392    0.8153 h   0  0  0  0  0  0  0  0  0  0  0  0
   -1.5128    2.5267    2.1567 h   0  0  0  0  0  0  0  0  0  0  0  0
  1  2  1  0  0  0  0
  2  3  1  0  0  0  0
  3  4  1  0  0  0  0
  4  5  1  0  0  0  0
  5  6  1  0  0  0  0
  1  7  1  0  0  0  0
  6  7  1  0  0  0  0
  1  8  1  0  0  0  0
  8  9  1  0  0  0  0
  7 10  1  0  0  0  0
  9 10  1  0  0  0  0
  6 11  1  0  0  0  0
 10 12  1  0  0  0  0
 11 12  1  0  0  0  0
  7 13  1  0  0  0  0
 10 14  1  0  0  0  0
  6 15  1  0  0  0  0
  5 16  1  0  0  0  0
 12 17  1  0  0  0  0
 12 18  1  0  0  0  0
  1 19  1  0  0  0  0
  2 20  1  0  0  0  0
  2 21  1  0  0  0  0
  3 22  1  0  0  0  0
  3 23  1  0  0  0  0
  4 24  1  0  0  0  0
  4 25  1  0  0  0  0
  5 26  1  0  0  0  0
  8 27  1  0  0  0  0
  8 28  1  0  0  0  0
  9 29  1  0  0  0  0
  9 30  1  0  0  0  0
 16 31  1  0  0  0  0
 16 32  1  0  0  0  0
 16 33  1  0  0  0  0
 17 34  1  0  0  0  0
 17 35  1  0  0  0  0
 17 36  1  0  0  0  0
 18 37  1  0  0  0  0
 18 38  1  0  0  0  0
 18 39  1  0  0  0  0
 19 40  1  0  0  0  0
 19 41  1  0  0  0  0
 19 42  1  0  0  0  0
M  END
