 xtb: 6.7.1 (edcfbbe)
          08092616283D

 35 36  0     0  0            999 V2000
    0.0927   -0.6180    0.1122 c   0  0  0  0  0  0  0  0  0  0  0  0
   -0.9459    0.3998    0.6517 c   0  0  0  0  0  0  0  0  0  0  0  0
   -0.3373    1.8146    0.7388 c   0  0  0  0  0  0  0  0  0  0  0  0
    0.5662    2.2087   -0.4306 c   0  0  0  0  0  0  0  0  0  0  0  0
    1.4931    1.0527   -0.8184 c   0  0  0  0  0  0  0  0  0  0  0  0
    0.6359   -0.1412   -1.2499 c   0  0  0  0  0  0  0  0  0  0  0  0
    1.3563   -0.5756    0.9974 c   0  0  0  0  0  0  0  0  0  0  0  0
    2.2009    0.5253    0.4043 c   0  0  0  0  0  0  0  0  0  0  0  0
    1.3866   -1.1236   -1.9366 o   0  0  0  0  0  0  0  0  0  0  0  0
   -0.5002   -2.0288    0.0154 c   0  0  0  0  0  0  0  0  0  0  0  0
    3.3637    0.9462    0.8686 c   0  0  0  0  0  0  0  0  0  0  0  0
   -2.2787    0.3578   -0.0698 c   0  0  0  0  0  0  0  0  0  0  0  0
   -2.5429    0.9528   -1.2234 c   0  0  0  0  0  0  0  0  0  0  0  0
   -1.1629    0.0863    1.6798 h   0  0  0  0  0  0  0  0  0  0  0  0
   -0.9594   -2.5355    1.2523 o   0  0  0  0  0  0  0  0  0  0  0  0
   -3.3586   -0.3750    0.6741 c   0  0  0  0  0  0  0  0  0  0  0  0
   -1.1485    2.5389    0.8308 h   0  0  0  0  0  0  0  0  0  0  0  0
    0.2563    1.8741    1.6536 h   0  0  0  0  0  0  0  0  0  0  0  0
   -0.0219    2.4965   -1.3021 h   0  0  0  0  0  0  0  0  0  0  0  0
    1.1659    3.0732   -0.1379 h   0  0  0  0  0  0  0  0  0  0  0  0
    2.1843    1.3669   -1.6040 h   0  0  0  0  0  0  0  0  0  0  0  0
   -0.1640    0.1215   -1.9415 h   0  0  0  0  0  0  0  0  0  0  0  0
    1.8937   -1.5281    0.9474 h   0  0  0  0  0  0  0  0  0  0  0  0
    1.1263   -0.3824    2.0460 h   0  0  0  0  0  0  0  0  0  0  0  0
    2.1901   -1.2955   -1.4274 h   0  0  0  0  0  0  0  0  0  0  0  0
    0.2478   -2.7074   -0.4166 h   0  0  0  0  0  0  0  0  0  0  0  0
   -1.3666   -2.0210   -0.6489 h   0  0  0  0  0  0  0  0  0  0  0  0
    3.8064    0.5288    1.7580 h   0  0  0  0  0  0  0  0  0  0  0  0
    3.9172    1.7306    0.3809 h   0  0  0  0  0  0  0  0  0  0  0  0
   -3.5248    0.8921   -1.6647 h   0  0  0  0  0  0  0  0  0  0  0  0
   -1.8245    1.5278   -1.7777 h   0  0  0  0  0  0  0  0  0  0  0  0
   -0.2122   -2.5606    1.8639 h   0  0  0  0  0  0  0  0  0  0  0  0
   -4.2430   -0.5073    0.0561 h   0  0  0  0  0  0  0  0  0  0  0  0
   -3.0066   -1.3489    1.0073 h   0  0  0  0  0  0  0  0  0  0  0  0
   -3.6398    0.1944    1.5611 h   0  0  0  0  0  0  0  0  0  0  0  0
  1  2  1  0  0  0  0
  2  3  1  0  0  0  0
  3  4  1  0  0  0  0
  4  5  1  0  0  0  0
  1  6  1  0  0  0  0
  5  6  1  0  0  0  0
  1  7  1  0  0  0  0
  5  8  1  0  0  0  0
  7  8  1  0  0  0  0
  6  9  1  0  0  0  0
  1 10  1  0  0  0  0
  8 11  2  0  0  0  0
  2 12  1  0  0  0  0
 12 13  2  0  0  0  0
  2 14  1  0  0  0  0
 10 15  1  0  0  0  0
 12 16  1  0  0  0  0
  3 17  1  0  0  0  0
  3 18  1  0  0  0  0
  4 19  1  0  0  0  0
  4 20  1  0  0  0  0
  5 21  1  0  0  0  0
  6 22  1  0  0  0  0
  7 23  1  0  0  0  0
  7 24  1  0  0  0  0
  9 25  1  0  0  0  0
 10 26  1  0  0  0  0
 10 27  1  0  0  0  0
 11 28  1  0  0  0  0
 11 29  1  0  0  0  0
 13 30  1  0  0  0  0
 13 31  1  0  0  0  0
 15 32  1  0  0  0  0
 16 33  1  0  0  0  0
 16 34  1  0  0  0  0
 16 35  1  0  0  0  0
M  END
