 xtb: 6.7.1 (edcfbbe)
          08092615283D

 35 36  0     0  0            999 V2000
    0.0774   -0.6195    0.1079 c   0  0  0  0  0  0  0  0  0  0  0  0
   -0.9559    0.4041    0.6500 c   0  0  0  0  0  0  0  0  0  0  0  0
   -0.3328    1.8143    0.7402 c   0  0  0  0  0  0  0  0  0  0  0  0
    0.5730    2.2054   -0.4280 c   0  0  0  0  0  0  0  0  0  0  0  0
    1.4913    1.0437   -0.8181 c   0  0  0  0  0  0  0  0  0  0  0  0
    0.6245   -0.1424   -1.2533 c   0  0  0  0  0  0  0  0  0  0  0  0
    1.3402   -0.5862    0.9928 c   0  0  0  0  0  0  0  0  0  0  0  0
    2.1945    0.5070    0.4039 c   0  0  0  0  0  0  0  0  0  0  0  0
    1.3667   -1.1274   -1.9428 o   0  0  0  0  0  0  0  0  0  0  0  0
   -0.5115   -2.0319    0.0112 c   0  0  0  0  0  0  0  0  0  0  0  0
    3.3595    0.9199    0.8697 c   0  0  0  0  0  0  0  0  0  0  0  0
   -2.2944    0.3916   -0.0650 c   0  0  0  0  0  0  0  0  0  0  0  0
   -2.5434    0.9871   -1.2217 c   0  0  0  0  0  0  0  0  0  0  0  0
   -1.1659    0.1048    1.6850 h   0  0  0  0  0  0  0  0  0  0  0  0
   -0.7677   -2.6253    1.2665 o   0  0  0  0  0  0  0  0  0  0  0  0
   -3.4058   -0.2985    0.6786 c   0  0  0  0  0  0  0  0  0  0  0  0
   -1.1364    2.5467    0.8378 h   0  0  0  0  0  0  0  0  0  0  0  0
    0.2642    1.8622    1.6532 h   0  0  0  0  0  0  0  0  0  0  0  0
   -0.0122    2.5018   -1.2986 h   0  0  0  0  0  0  0  0  0  0  0  0
    1.1786    3.0643   -0.1310 h   0  0  0  0  0  0  0  0  0  0  0  0
    2.1851    1.3539   -1.6029 h   0  0  0  0  0  0  0  0  0  0  0  0
   -0.1712    0.1292   -1.9466 h   0  0  0  0  0  0  0  0  0  0  0  0
    1.8557   -1.5494    0.9483 h   0  0  0  0  0  0  0  0  0  0  0  0
    1.1090   -0.4032    2.0424 h   0  0  0  0  0  0  0  0  0  0  0  0
    2.1466   -1.3386   -1.4122 h   0  0  0  0  0  0  0  0  0  0  0  0
    0.2057   -2.6944   -0.4797 h   0  0  0  0  0  0  0  0  0  0  0  0
   -1.4198   -2.0096   -0.6056 h   0  0  0  0  0  0  0  0  0  0  0  0
    3.7983    0.4961    1.7578 h   0  0  0  0  0  0  0  0  0  0  0  0
    3.9194    1.7010    0.3836 h   0  0  0  0  0  0  0  0  0  0  0  0
   -3.5280    0.9576   -1.6598 h   0  0  0  0  0  0  0  0  0  0  0  0
   -1.8065    1.5297   -1.7833 h   0  0  0  0  0  0  0  0  0  0  0  0
   -1.3700   -2.0485    1.7553 h   0  0  0  0  0  0  0  0  0  0  0  0
   -3.2033   -1.3615    0.8027 h   0  0  0  0  0  0  0  0  0  0  0  0
   -3.5218    0.1390    1.6705 h   0  0  0  0  0  0  0  0  0  0  0  0
   -4.3478   -0.1961    0.1456 h   0  0  0  0  0  0  0  0  0  0  0  0
  1  2  1  0  0  0  0
  2  3  1  0  0  0  0
  3  4  1  0  0  0  0
  4  5  1  0  0  0  0
  1  6  1  0  0  0  0
  5  6  1  0  0  0  0
  1  7  1  0  0  0  0
  5  8  1  0  0  0  0
  7  8  1  0  0  0  0
  6  9  1  0  0  0  0
  1 10  1  0  0  0  0
  8 11  2  0  0  0  0
  2 12  1  0  0  0  0
 12 13  2  0  0  0  0
  2 14  1  0  0  0  0
 10 15  1  0  0  0  0
 12 16  1  0  0  0  0
  3 17  1  0  0  0  0
  3 18  1  0  0  0  0
  4 19  1  0  0  0  0
  4 20  1  0  0  0  0
  5 21  1  0  0  0  0
  6 22  1  0  0  0  0
  7 23  1  0  0  0  0
  7 24  1  0  0  0  0
  9 25  1  0  0  0  0
 10 26  1  0  0  0  0
 10 27  1  0  0  0  0
 11 28  1  0  0  0  0
 11 29  1  0  0  0  0
 13 30  1  0  0  0  0
 13 31  1  0  0  0  0
 15 32  1  0  0  0  0
 16 33  1  0  0  0  0
 16 34  1  0  0  0  0
 16 35  1  0  0  0  0
M  END
