 xtb: 6.7.1 (edcfbbe)
          08092620553D

 50 55  0     0  0            999 V2000
   -0.0521    0.5297    2.5033 c   0  0  0  0  0  0  0  0  0  0  0  0
    1.4267    0.8800    2.3354 c   0  0  0  0  0  0  0  0  0  0  0  0
   -2.0997   -3.4430   -0.1415 c   0  0  0  0  0  0  0  0  0  0  0  0
   -3.1939   -2.9957    0.5803 c   0  0  0  0  0  0  0  0  0  0  0  0
   -3.2164   -1.7008    1.0546 c   0  0  0  0  0  0  0  0  0  0  0  0
   -2.1678   -0.8197    0.7875 c   0  0  0  0  0  0  0  0  0  0  0  0
   -1.0942   -1.2468   -0.0081 c   0  0  0  0  0  0  0  0  0  0  0  0
   -1.0667   -2.5697   -0.4301 c   0  0  0  0  0  0  0  0  0  0  0  0
   -2.2190    0.4663    1.3047 n   0  0  0  0  0  0  0  0  0  0  0  0
   -0.9595    1.1626    1.4316 c   0  0  0  0  0  0  0  0  0  0  0  0
   -0.3209    1.1485    0.0260 c   0  0  0  0  0  0  0  0  0  0  0  0
    0.0212   -0.2963   -0.3934 c   0  0  0  0  0  0  0  0  0  0  0  0
    1.0329    1.8391    0.0964 c   0  0  0  0  0  0  0  0  0  0  0  0
    1.8540    0.7852    0.8594 c   0  0  0  0  0  0  0  0  0  0  0  0
    1.3814   -0.5805    0.3091 c   0  0  0  0  0  0  0  0  0  0  0  0
    3.3179    1.0447    0.7137 c   0  0  0  0  0  0  0  0  0  0  0  0
    4.1410    0.1988    0.1213 c   0  0  0  0  0  0  0  0  0  0  0  0
    3.6953   -1.1223   -0.4026 c   0  0  0  0  0  0  0  0  0  0  0  0
    2.2511   -1.2183   -0.7244 n   0  0  0  0  0  0  0  0  0  0  0  0
    1.9003   -0.5044   -1.9704 c   0  0  0  0  0  0  0  0  0  0  0  0
    0.3826   -0.3780   -1.8998 c   0  0  0  0  0  0  0  0  0  0  0  0
    1.9503   -2.5303   -0.8420 o   0  0  0  0  0  0  0  0  0  0  0  0
    1.3033   -1.3324    1.0951 h   0  0  0  0  0  0  0  0  0  0  0  0
   -1.3294    1.8381   -0.8734 c   0  0  0  0  0  0  0  0  0  0  0  0
   -2.0459    1.3110   -1.6905 o   0  0  0  0  0  0  0  0  0  0  0  0
   -1.3560    3.1482   -0.6259 o   0  0  0  0  0  0  0  0  0  0  0  0
   -2.3080    3.9228   -1.3560 c   0  0  0  0  0  0  0  0  0  0  0  0
   -0.3941    0.8534    3.4886 h   0  0  0  0  0  0  0  0  0  0  0  0
   -0.1837   -0.5529    2.4551 h   0  0  0  0  0  0  0  0  0  0  0  0
    1.6139    1.8955    2.6884 h   0  0  0  0  0  0  0  0  0  0  0  0
    2.0281    0.1991    2.9412 h   0  0  0  0  0  0  0  0  0  0  0  0
   -2.0489   -4.4666   -0.4811 h   0  0  0  0  0  0  0  0  0  0  0  0
   -4.0166   -3.6620    0.7962 h   0  0  0  0  0  0  0  0  0  0  0  0
   -4.0496   -1.3521    1.6493 h   0  0  0  0  0  0  0  0  0  0  0  0
   -0.1919   -2.9294   -0.9534 h   0  0  0  0  0  0  0  0  0  0  0  0
   -2.8518    0.5681    2.0859 h   0  0  0  0  0  0  0  0  0  0  0  0
   -1.1717    2.2051    1.6948 h   0  0  0  0  0  0  0  0  0  0  0  0
    0.9846    2.7858    0.6310 h   0  0  0  0  0  0  0  0  0  0  0  0
    1.4298    2.0281   -0.8997 h   0  0  0  0  0  0  0  0  0  0  0  0
    3.6666    1.9907    1.1005 h   0  0  0  0  0  0  0  0  0  0  0  0
    5.1957    0.4077    0.0228 h   0  0  0  0  0  0  0  0  0  0  0  0
    4.2342   -1.4043   -1.3096 h   0  0  0  0  0  0  0  0  0  0  0  0
    3.8806   -1.9098    0.3369 h   0  0  0  0  0  0  0  0  0  0  0  0
    2.4087    0.4597   -1.9833 h   0  0  0  0  0  0  0  0  0  0  0  0
    2.2270   -1.1133   -2.8129 h   0  0  0  0  0  0  0  0  0  0  0  0
   -0.0832   -1.2592   -2.3361 h   0  0  0  0  0  0  0  0  0  0  0  0
    0.0323    0.4895   -2.4524 h   0  0  0  0  0  0  0  0  0  0  0  0
   -3.3168    3.5550   -1.1626 h   0  0  0  0  0  0  0  0  0  0  0  0
   -2.1913    4.9441   -1.0045 h   0  0  0  0  0  0  0  0  0  0  0  0
   -2.1072    3.8545   -2.4263 h   0  0  0  0  0  0  0  0  0  0  0  0
  1  2  1  0  0  0  0
  3  4  4  0  0  0  0
  4  5  4  0  0  0  0
  5  6  4  0  0  0  0
  6  7  4  0  0  0  0
  3  8  4  0  0  0  0
  7  8  4  0  0  0  0
  6  9  1  0  0  0  0
  1 10  1  0  0  0  0
  9 10  1  0  0  0  0
 10 11  1  0  0  0  0
  7 12  1  0  0  0  0
 11 12  1  0  0  0  0
 11 13  1  0  0  0  0
  2 14  1  0  0  0  0
 13 14  1  0  0  0  0
 12 15  1  0  0  0  0
 14 15  1  0  0  0  0
 14 16  1  0  0  0  0
 16 17  2  0  0  0  0
 17 18  1  0  0  0  0
 15 19  1  0  0  0  0
 18 19  1  0  0  0  0
 19 20  1  0  0  0  0
 12 21  1  0  0  0  0
 20 21  1  0  0  0  0
 19 22  1  0  0  0  0
 15 23  1  0  0  0  0
 11 24  1  0  0  0  0
 24 25  2  0  0  0  0
 24 26  1  0  0  0  0
 26 27  1  0  0  0  0
  1 28  1  0  0  0  0
  1 29  1  0  0  0  0
  2 30  1  0  0  0  0
  2 31  1  0  0  0  0
  3 32  1  0  0  0  0
  4 33  1  0  0  0  0
  5 34  1  0  0  0  0
  8 35  1  0  0  0  0
  9 36  1  0  0  0  0
 10 37  1  0  0  0  0
 13 38  1  0  0  0  0
 13 39  1  0  0  0  0
 16 40  1  0  0  0  0
 17 41  1  0  0  0  0
 18 42  1  0  0  0  0
 18 43  1  0  0  0  0
 20 44  1  0  0  0  0
 20 45  1  0  0  0  0
 21 46  1  0  0  0  0
 21 47  1  0  0  0  0
 27 48  1  0  0  0  0
 27 49  1  0  0  0  0
 27 50  1  0  0  0  0
M  END
