 xtb: 6.7.1 (edcfbbe)
          08092615283D

 35 36  0     0  0            999 V2000
   -0.0455   -0.5503    0.2940 c   0  0  0  0  0  0  0  0  0  0  0  0
   -1.0290    0.5811    0.6917 c   0  0  0  0  0  0  0  0  0  0  0  0
   -0.3291    1.9558    0.6182 c   0  0  0  0  0  0  0  0  0  0  0  0
    0.6143    2.1554   -0.5700 c   0  0  0  0  0  0  0  0  0  0  0  0
    1.4654    0.9048   -0.8062 c   0  0  0  0  0  0  0  0  0  0  0  0
    0.5158   -0.2656   -1.1122 c   0  0  0  0  0  0  0  0  0  0  0  0
    1.2097   -0.4715    1.1855 c   0  0  0  0  0  0  0  0  0  0  0  0
    2.1251    0.4928    0.4820 c   0  0  0  0  0  0  0  0  0  0  0  0
    1.1572   -1.3542   -1.7237 o   0  0  0  0  0  0  0  0  0  0  0  0
   -0.7202   -1.9233    0.3991 c   0  0  0  0  0  0  0  0  0  0  0  0
    3.3003    0.9078    0.9175 c   0  0  0  0  0  0  0  0  0  0  0  0
   -2.3537    0.5466   -0.0440 c   0  0  0  0  0  0  0  0  0  0  0  0
   -2.5701    1.0485   -1.2502 c   0  0  0  0  0  0  0  0  0  0  0  0
   -1.2717    0.4134    1.7491 h   0  0  0  0  0  0  0  0  0  0  0  0
    0.2518   -2.9515    0.3317 o   0  0  0  0  0  0  0  0  0  0  0  0
   -3.4979   -0.0310    0.7420 c   0  0  0  0  0  0  0  0  0  0  0  0
   -1.0929    2.7360    0.6119 h   0  0  0  0  0  0  0  0  0  0  0  0
    0.2576    2.0824    1.5303 h   0  0  0  0  0  0  0  0  0  0  0  0
    0.0587    2.3851   -1.4797 h   0  0  0  0  0  0  0  0  0  0  0  0
    1.2650    3.0070   -0.3597 h   0  0  0  0  0  0  0  0  0  0  0  0
    2.1810    1.0715   -1.6131 h   0  0  0  0  0  0  0  0  0  0  0  0
   -0.2713    0.0269   -1.8111 h   0  0  0  0  0  0  0  0  0  0  0  0
    1.6771   -1.4562    1.2534 h   0  0  0  0  0  0  0  0  0  0  0  0
    0.9745   -0.1543    2.2023 h   0  0  0  0  0  0  0  0  0  0  0  0
    1.5285   -1.9185   -1.0344 h   0  0  0  0  0  0  0  0  0  0  0  0
   -1.4459   -2.0251   -0.4167 h   0  0  0  0  0  0  0  0  0  0  0  0
   -1.2518   -1.9957    1.3600 h   0  0  0  0  0  0  0  0  0  0  0  0
    3.7056    0.5795    1.8601 h   0  0  0  0  0  0  0  0  0  0  0  0
    3.9053    1.5920    0.3475 h   0  0  0  0  0  0  0  0  0  0  0  0
   -3.5490    1.0074   -1.6993 h   0  0  0  0  0  0  0  0  0  0  0  0
   -1.8121    1.5250   -1.8426 h   0  0  0  0  0  0  0  0  0  0  0  0
   -0.1893   -3.7847    0.1453 h   0  0  0  0  0  0  0  0  0  0  0  0
   -4.4013   -0.0740    0.1395 h   0  0  0  0  0  0  0  0  0  0  0  0
   -3.2707   -1.0324    1.1005 h   0  0  0  0  0  0  0  0  0  0  0  0
   -3.6954    0.5945    1.6131 h   0  0  0  0  0  0  0  0  0  0  0  0
  1  2  1  0  0  0  0
  2  3  1  0  0  0  0
  3  4  1  0  0  0  0
  4  5  1  0  0  0  0
  1  6  1  0  0  0  0
  5  6  1  0  0  0  0
  1  7  1  0  0  0  0
  5  8  1  0  0  0  0
  7  8  1  0  0  0  0
  6  9  1  0  0  0  0
  1 10  1  0  0  0  0
  8 11  2  0  0  0  0
  2 12  1  0  0  0  0
 12 13  2  0  0  0  0
  2 14  1  0  0  0  0
 10 15  1  0  0  0  0
 12 16  1  0  0  0  0
  3 17  1  0  0  0  0
  3 18  1  0  0  0  0
  4 19  1  0  0  0  0
  4 20  1  0  0  0  0
  5 21  1  0  0  0  0
  6 22  1  0  0  0  0
  7 23  1  0  0  0  0
  7 24  1  0  0  0  0
  9 25  1  0  0  0  0
 10 26  1  0  0  0  0
 10 27  1  0  0  0  0
 11 28  1  0  0  0  0
 11 29  1  0  0  0  0
 13 30  1  0  0  0  0
 13 31  1  0  0  0  0
 15 32  1  0  0  0  0
 16 33  1  0  0  0  0
 16 34  1  0  0  0  0
 16 35  1  0  0  0  0
M  END
