 xtb: 6.7.1 (edcfbbe)
          08092620033D

 50 55  0     0  0            999 V2000
    0.0229    0.5229    2.5705 c   0  0  0  0  0  0  0  0  0  0  0  0
    1.5226    0.7746    2.4147 c   0  0  0  0  0  0  0  0  0  0  0  0
   -2.2436   -3.1963   -0.2810 c   0  0  0  0  0  0  0  0  0  0  0  0
   -3.2979   -2.7462    0.4965 c   0  0  0  0  0  0  0  0  0  0  0  0
   -3.2474   -1.4855    1.0535 c   0  0  0  0  0  0  0  0  0  0  0  0
   -2.1619   -0.6401    0.8196 c   0  0  0  0  0  0  0  0  0  0  0  0
   -1.1252   -1.0668   -0.0244 c   0  0  0  0  0  0  0  0  0  0  0  0
   -1.1732   -2.3574   -0.5349 c   0  0  0  0  0  0  0  0  0  0  0  0
   -2.1444    0.6144    1.4026 n   0  0  0  0  0  0  0  0  0  0  0  0
   -0.8610    1.2569    1.5391 c   0  0  0  0  0  0  0  0  0  0  0  0
   -0.2153    1.2855    0.1367 c   0  0  0  0  0  0  0  0  0  0  0  0
    0.0346   -0.1526   -0.3648 c   0  0  0  0  0  0  0  0  0  0  0  0
    1.1783    1.8840    0.2493 c   0  0  0  0  0  0  0  0  0  0  0  0
    1.9391    0.7388    0.9337 c   0  0  0  0  0  0  0  0  0  0  0  0
    1.3819   -0.5579    0.3016 c   0  0  0  0  0  0  0  0  0  0  0  0
    3.4151    0.9177    0.7908 c   0  0  0  0  0  0  0  0  0  0  0  0
    4.1807    0.0670    0.1320 c   0  0  0  0  0  0  0  0  0  0  0  0
    3.6524   -1.1859   -0.4764 c   0  0  0  0  0  0  0  0  0  0  0  0
    2.2023   -1.1743   -0.7844 n   0  0  0  0  0  0  0  0  0  0  0  0
    1.8830   -0.3594   -1.9761 c   0  0  0  0  0  0  0  0  0  0  0  0
    0.3757   -0.1464   -1.8786 c   0  0  0  0  0  0  0  0  0  0  0  0
    1.8220   -2.4549   -0.9874 o   0  0  0  0  0  0  0  0  0  0  0  0
    1.2669   -1.3536    1.0386 h   0  0  0  0  0  0  0  0  0  0  0  0
   -1.1218    2.1108   -0.7565 c   0  0  0  0  0  0  0  0  0  0  0  0
   -0.9255    3.2827   -1.0021 o   0  0  0  0  0  0  0  0  0  0  0  0
   -2.1634    1.4336   -1.2116 o   0  0  0  0  0  0  0  0  0  0  0  0
   -3.1101    2.1429   -2.0088 c   0  0  0  0  0  0  0  0  0  0  0  0
   -0.2929    0.8185    3.5732 h   0  0  0  0  0  0  0  0  0  0  0  0
   -0.1788   -0.5454    2.4697 h   0  0  0  0  0  0  0  0  0  0  0  0
    1.7852    1.7511    2.8252 h   0  0  0  0  0  0  0  0  0  0  0  0
    2.0727    0.0171    2.9770 h   0  0  0  0  0  0  0  0  0  0  0  0
   -2.2513   -4.1958   -0.6890 h   0  0  0  0  0  0  0  0  0  0  0  0
   -4.1472   -3.3859    0.6888 h   0  0  0  0  0  0  0  0  0  0  0  0
   -4.0503   -1.1373    1.6885 h   0  0  0  0  0  0  0  0  0  0  0  0
   -0.3283   -2.7244   -1.1003 h   0  0  0  0  0  0  0  0  0  0  0  0
   -2.7751    0.7233    2.1835 h   0  0  0  0  0  0  0  0  0  0  0  0
   -1.0274    2.2928    1.8582 h   0  0  0  0  0  0  0  0  0  0  0  0
    1.1851    2.7965    0.8428 h   0  0  0  0  0  0  0  0  0  0  0  0
    1.5766    2.1263   -0.7346 h   0  0  0  0  0  0  0  0  0  0  0  0
    3.8232    1.8125    1.2365 h   0  0  0  0  0  0  0  0  0  0  0  0
    5.2454    0.2185    0.0359 h   0  0  0  0  0  0  0  0  0  0  0  0
    4.1657   -1.4346   -1.4077 h   0  0  0  0  0  0  0  0  0  0  0  0
    3.7972   -2.0327    0.2043 h   0  0  0  0  0  0  0  0  0  0  0  0
    2.4456    0.5729   -1.9316 h   0  0  0  0  0  0  0  0  0  0  0  0
    2.1669   -0.9293   -2.8605 h   0  0  0  0  0  0  0  0  0  0  0  0
   -0.1486   -0.9595   -2.3768 h   0  0  0  0  0  0  0  0  0  0  0  0
    0.0880    0.7889   -2.3552 h   0  0  0  0  0  0  0  0  0  0  0  0
   -2.6461    2.4754   -2.9392 h   0  0  0  0  0  0  0  0  0  0  0  0
   -3.9124    1.4383   -2.2076 h   0  0  0  0  0  0  0  0  0  0  0  0
   -3.4801    3.0146   -1.4667 h   0  0  0  0  0  0  0  0  0  0  0  0
  1  2  1  0  0  0  0
  3  4  4  0  0  0  0
  4  5  4  0  0  0  0
  5  6  4  0  0  0  0
  6  7  4  0  0  0  0
  3  8  4  0  0  0  0
  7  8  4  0  0  0  0
  6  9  1  0  0  0  0
  1 10  1  0  0  0  0
  9 10  1  0  0  0  0
 10 11  1  0  0  0  0
  7 12  1  0  0  0  0
 11 12  1  0  0  0  0
 11 13  1  0  0  0  0
  2 14  1  0  0  0  0
 13 14  1  0  0  0  0
 12 15  1  0  0  0  0
 14 15  1  0  0  0  0
 14 16  1  0  0  0  0
 16 17  2  0  0  0  0
 17 18  1  0  0  0  0
 15 19  1  0  0  0  0
 18 19  1  0  0  0  0
 19 20  1  0  0  0  0
 12 21  1  0  0  0  0
 20 21  1  0  0  0  0
 19 22  1  0  0  0  0
 15 23  1  0  0  0  0
 11 24  1  0  0  0  0
 24 25  2  0  0  0  0
 24 26  1  0  0  0  0
 26 27  1  0  0  0  0
  1 28  1  0  0  0  0
  1 29  1  0  0  0  0
  2 30  1  0  0  0  0
  2 31  1  0  0  0  0
  3 32  1  0  0  0  0
  4 33  1  0  0  0  0
  5 34  1  0  0  0  0
  8 35  1  0  0  0  0
  9 36  1  0  0  0  0
 10 37  1  0  0  0  0
 13 38  1  0  0  0  0
 13 39  1  0  0  0  0
 16 40  1  0  0  0  0
 17 41  1  0  0  0  0
 18 42  1  0  0  0  0
 18 43  1  0  0  0  0
 20 44  1  0  0  0  0
 20 45  1  0  0  0  0
 21 46  1  0  0  0  0
 21 47  1  0  0  0  0
 27 48  1  0  0  0  0
 27 49  1  0  0  0  0
 27 50  1  0  0  0  0
M  END
