 xtb: 6.7.1 (edcfbbe)
          08092615283D

 35 36  0     0  0            999 V2000
    0.1342   -0.5934    0.4255 c   0  0  0  0  0  0  0  0  0  0  0  0
   -0.9058    0.5030    0.7824 c   0  0  0  0  0  0  0  0  0  0  0  0
   -0.3213    1.9117    0.5564 c   0  0  0  0  0  0  0  0  0  0  0  0
    0.5408    2.0619   -0.6983 c   0  0  0  0  0  0  0  0  0  0  0  0
    1.5099    0.8816   -0.8191 c   0  0  0  0  0  0  0  0  0  0  0  0
    0.6818   -0.3892   -1.0034 c   0  0  0  0  0  0  0  0  0  0  0  0
    1.4035   -0.3694    1.2699 c   0  0  0  0  0  0  0  0  0  0  0  0
    2.2002    0.6503    0.4991 c   0  0  0  0  0  0  0  0  0  0  0  0
    1.5095   -1.4453   -1.4265 o   0  0  0  0  0  0  0  0  0  0  0  0
   -0.4373   -2.0074    0.6230 c   0  0  0  0  0  0  0  0  0  0  0  0
    3.3065    1.2430    0.9065 c   0  0  0  0  0  0  0  0  0  0  0  0
   -2.2750    0.3040    0.1624 c   0  0  0  0  0  0  0  0  0  0  0  0
   -3.2302   -0.2966    0.8643 c   0  0  0  0  0  0  0  0  0  0  0  0
   -1.0676    0.4036    1.8640 h   0  0  0  0  0  0  0  0  0  0  0  0
   -1.2148   -2.4544   -0.4639 o   0  0  0  0  0  0  0  0  0  0  0  0
   -2.5793    0.8263   -1.2107 c   0  0  0  0  0  0  0  0  0  0  0  0
   -1.1347    2.6403    0.5432 h   0  0  0  0  0  0  0  0  0  0  0  0
    0.3065    2.1522    1.4165 h   0  0  0  0  0  0  0  0  0  0  0  0
   -0.0726    2.1132   -1.5989 h   0  0  0  0  0  0  0  0  0  0  0  0
    1.1049    2.9938   -0.6256 h   0  0  0  0  0  0  0  0  0  0  0  0
    2.2114    1.0304   -1.6404 h   0  0  0  0  0  0  0  0  0  0  0  0
   -0.1169   -0.2444   -1.7396 h   0  0  0  0  0  0  0  0  0  0  0  0
    1.9779   -1.2966    1.3281 h   0  0  0  0  0  0  0  0  0  0  0  0
    1.1834   -0.0486    2.2885 h   0  0  0  0  0  0  0  0  0  0  0  0
    0.9583   -2.2341   -1.4950 h   0  0  0  0  0  0  0  0  0  0  0  0
   -1.0130   -2.0490    1.5571 h   0  0  0  0  0  0  0  0  0  0  0  0
    0.3827   -2.7265    0.7037 h   0  0  0  0  0  0  0  0  0  0  0  0
    3.7373    1.0395    1.8725 h   0  0  0  0  0  0  0  0  0  0  0  0
    3.8299    1.9513    0.2874 h   0  0  0  0  0  0  0  0  0  0  0  0
   -4.2194   -0.4503    0.4649 h   0  0  0  0  0  0  0  0  0  0  0  0
   -3.0717   -0.6562    1.8674 h   0  0  0  0  0  0  0  0  0  0  0  0
   -2.0203   -1.9215   -0.4964 h   0  0  0  0  0  0  0  0  0  0  0  0
   -2.3563    1.8889   -1.2757 h   0  0  0  0  0  0  0  0  0  0  0  0
   -1.9984    0.3158   -1.9763 h   0  0  0  0  0  0  0  0  0  0  0  0
   -3.6339    0.6851   -1.4379 h   0  0  0  0  0  0  0  0  0  0  0  0
  1  2  1  0  0  0  0
  2  3  1  0  0  0  0
  3  4  1  0  0  0  0
  4  5  1  0  0  0  0
  1  6  1  0  0  0  0
  5  6  1  0  0  0  0
  1  7  1  0  0  0  0
  5  8  1  0  0  0  0
  7  8  1  0  0  0  0
  6  9  1  0  0  0  0
  1 10  1  0  0  0  0
  8 11  2  0  0  0  0
  2 12  1  0  0  0  0
 12 13  2  0  0  0  0
  2 14  1  0  0  0  0
 10 15  1  0  0  0  0
 12 16  1  0  0  0  0
  3 17  1  0  0  0  0
  3 18  1  0  0  0  0
  4 19  1  0  0  0  0
  4 20  1  0  0  0  0
  5 21  1  0  0  0  0
  6 22  1  0  0  0  0
  7 23  1  0  0  0  0
  7 24  1  0  0  0  0
  9 25  1  0  0  0  0
 10 26  1  0  0  0  0
 10 27  1  0  0  0  0
 11 28  1  0  0  0  0
 11 29  1  0  0  0  0
 13 30  1  0  0  0  0
 13 31  1  0  0  0  0
 15 32  1  0  0  0  0
 16 33  1  0  0  0  0
 16 34  1  0  0  0  0
 16 35  1  0  0  0  0
M  END
