 xtb: 6.7.1 (edcfbbe)
          08092618423D

 35 36  0     0  0            999 V2000
    0.0457   -0.7686   -0.0342 c   0  0  0  0  0  0  0  0  0  0  0  0
    0.6483    0.4365   -0.8161 c   0  0  0  0  0  0  0  0  0  0  0  0
   -0.4089    1.5458   -0.9763 c   0  0  0  0  0  0  0  0  0  0  0  0
   -1.2501    1.8023    0.2727 c   0  0  0  0  0  0  0  0  0  0  0  0
   -1.7735    0.4808    0.8466 c   0  0  0  0  0  0  0  0  0  0  0  0
   -0.5870   -0.3659    1.3162 c   0  0  0  0  0  0  0  0  0  0  0  0
   -1.2188   -1.2522   -0.7752 c   0  0  0  0  0  0  0  0  0  0  0  0
   -2.3340   -0.3813   -0.2539 c   0  0  0  0  0  0  0  0  0  0  0  0
    0.2256    0.3048    2.2485 o   0  0  0  0  0  0  0  0  0  0  0  0
    1.0567   -1.9101    0.1433 c   0  0  0  0  0  0  0  0  0  0  0  0
   -3.5806   -0.3719   -0.6891 c   0  0  0  0  0  0  0  0  0  0  0  0
    1.9929    0.9415   -0.3213 c   0  0  0  0  0  0  0  0  0  0  0  0
    3.1147    0.4094   -0.7918 c   0  0  0  0  0  0  0  0  0  0  0  0
    0.8430    0.0511   -1.8266 h   0  0  0  0  0  0  0  0  0  0  0  0
    1.3481   -2.5997   -1.0530 o   0  0  0  0  0  0  0  0  0  0  0  0
    2.0631    2.0901    0.6385 c   0  0  0  0  0  0  0  0  0  0  0  0
    0.0804    2.4680   -1.2927 h   0  0  0  0  0  0  0  0  0  0  0  0
   -1.0877    1.2545   -1.7807 h   0  0  0  0  0  0  0  0  0  0  0  0
   -0.6719    2.3060    1.0454 h   0  0  0  0  0  0  0  0  0  0  0  0
   -2.0943    2.4411    0.0064 h   0  0  0  0  0  0  0  0  0  0  0  0
   -2.4871    0.6752    1.6489 h   0  0  0  0  0  0  0  0  0  0  0  0
   -0.9782   -1.2838    1.7874 h   0  0  0  0  0  0  0  0  0  0  0  0
   -1.1205   -1.1947   -1.8589 h   0  0  0  0  0  0  0  0  0  0  0  0
   -1.4124   -2.2988   -0.5260 h   0  0  0  0  0  0  0  0  0  0  0  0
    0.9418   -0.2856    2.5103 h   0  0  0  0  0  0  0  0  0  0  0  0
    0.6364   -2.6711    0.8079 h   0  0  0  0  0  0  0  0  0  0  0  0
    1.9838   -1.5272    0.5925 h   0  0  0  0  0  0  0  0  0  0  0  0
   -3.9044   -1.0089   -1.4954 h   0  0  0  0  0  0  0  0  0  0  0  0
   -4.3265    0.2730   -0.2565 h   0  0  0  0  0  0  0  0  0  0  0  0
    4.0827    0.7533   -0.4660 h   0  0  0  0  0  0  0  0  0  0  0  0
    3.1319   -0.3834   -1.5225 h   0  0  0  0  0  0  0  0  0  0  0  0
    1.7245   -1.9670   -1.6783 h   0  0  0  0  0  0  0  0  0  0  0  0
    1.4648    1.8970    1.5233 h   0  0  0  0  0  0  0  0  0  0  0  0
    3.0934    2.2647    0.9396 h   0  0  0  0  0  0  0  0  0  0  0  0
    1.6892    2.9988    0.1693 h   0  0  0  0  0  0  0  0  0  0  0  0
  1  2  1  0  0  0  0
  2  3  1  0  0  0  0
  3  4  1  0  0  0  0
  4  5  1  0  0  0  0
  1  6  1  0  0  0  0
  5  6  1  0  0  0  0
  1  7  1  0  0  0  0
  5  8  1  0  0  0  0
  7  8  1  0  0  0  0
  6  9  1  0  0  0  0
  1 10  1  0  0  0  0
  8 11  2  0  0  0  0
  2 12  1  0  0  0  0
 12 13  2  0  0  0  0
  2 14  1  0  0  0  0
 10 15  1  0  0  0  0
 12 16  1  0  0  0  0
  3 17  1  0  0  0  0
  3 18  1  0  0  0  0
  4 19  1  0  0  0  0
  4 20  1  0  0  0  0
  5 21  1  0  0  0  0
  6 22  1  0  0  0  0
  7 23  1  0  0  0  0
  7 24  1  0  0  0  0
  9 25  1  0  0  0  0
 10 26  1  0  0  0  0
 10 27  1  0  0  0  0
 11 28  1  0  0  0  0
 11 29  1  0  0  0  0
 13 30  1  0  0  0  0
 13 31  1  0  0  0  0
 15 32  1  0  0  0  0
 16 33  1  0  0  0  0
 16 34  1  0  0  0  0
 16 35  1  0  0  0  0
M  END
