 xtb: 6.7.1 (edcfbbe)
          08092615283D

 35 36  0     0  0            999 V2000
    0.1282   -0.5646    0.4260 c   0  0  0  0  0  0  0  0  0  0  0  0
   -0.9335    0.5209    0.7386 c   0  0  0  0  0  0  0  0  0  0  0  0
   -0.3312    1.9315    0.5579 c   0  0  0  0  0  0  0  0  0  0  0  0
    0.5898    2.1077   -0.6519 c   0  0  0  0  0  0  0  0  0  0  0  0
    1.5221    0.9027   -0.8073 c   0  0  0  0  0  0  0  0  0  0  0  0
    0.6595   -0.3464   -1.0009 c   0  0  0  0  0  0  0  0  0  0  0  0
    1.3835   -0.3233    1.2881 c   0  0  0  0  0  0  0  0  0  0  0  0
    2.2220    0.6445    0.5003 c   0  0  0  0  0  0  0  0  0  0  0  0
    1.3941   -1.4846   -1.4152 o   0  0  0  0  0  0  0  0  0  0  0  0
   -0.4001   -1.9935    0.6353 c   0  0  0  0  0  0  0  0  0  0  0  0
    3.3696    1.1762    0.8782 c   0  0  0  0  0  0  0  0  0  0  0  0
   -2.2515    0.3376    0.0118 c   0  0  0  0  0  0  0  0  0  0  0  0
   -2.5216    0.8205   -1.1915 c   0  0  0  0  0  0  0  0  0  0  0  0
   -1.1616    0.4149    1.8066 h   0  0  0  0  0  0  0  0  0  0  0  0
   -1.2781   -2.4348   -0.3670 o   0  0  0  0  0  0  0  0  0  0  0  0
   -3.3126   -0.3992    0.7763 c   0  0  0  0  0  0  0  0  0  0  0  0
   -1.1465    2.6550    0.5000 h   0  0  0  0  0  0  0  0  0  0  0  0
    0.2504    2.1671    1.4514 h   0  0  0  0  0  0  0  0  0  0  0  0
    0.0163    2.2350   -1.5709 h   0  0  0  0  0  0  0  0  0  0  0  0
    1.1866    3.0116   -0.5111 h   0  0  0  0  0  0  0  0  0  0  0  0
    2.2195    1.0680   -1.6345 h   0  0  0  0  0  0  0  0  0  0  0  0
   -0.1569   -0.1668   -1.7133 h   0  0  0  0  0  0  0  0  0  0  0  0
    1.9344   -1.2586    1.4109 h   0  0  0  0  0  0  0  0  0  0  0  0
    1.1408    0.0494    2.2835 h   0  0  0  0  0  0  0  0  0  0  0  0
    1.9828   -1.2262   -2.1315 h   0  0  0  0  0  0  0  0  0  0  0  0
   -0.9493   -2.0508    1.5788 h   0  0  0  0  0  0  0  0  0  0  0  0
    0.4596   -2.6742    0.6965 h   0  0  0  0  0  0  0  0  0  0  0  0
    3.8064    0.9591    1.8381 h   0  0  0  0  0  0  0  0  0  0  0  0
    3.9184    1.8514    0.2436 h   0  0  0  0  0  0  0  0  0  0  0  0
   -3.4897    0.6725   -1.6405 h   0  0  0  0  0  0  0  0  0  0  0  0
   -1.8212    1.3768   -1.7866 h   0  0  0  0  0  0  0  0  0  0  0  0
   -0.7729   -2.4715   -1.1870 h   0  0  0  0  0  0  0  0  0  0  0  0
   -4.2798   -0.2883    0.2933 h   0  0  0  0  0  0  0  0  0  0  0  0
   -3.0742   -1.4593    0.8140 h   0  0  0  0  0  0  0  0  0  0  0  0
   -3.3855   -0.0248    1.7966 h   0  0  0  0  0  0  0  0  0  0  0  0
  1  2  1  0  0  0  0
  2  3  1  0  0  0  0
  3  4  1  0  0  0  0
  4  5  1  0  0  0  0
  1  6  1  0  0  0  0
  5  6  1  0  0  0  0
  1  7  1  0  0  0  0
  5  8  1  0  0  0  0
  7  8  1  0  0  0  0
  6  9  1  0  0  0  0
  1 10  1  0  0  0  0
  8 11  2  0  0  0  0
  2 12  1  0  0  0  0
 12 13  2  0  0  0  0
  2 14  1  0  0  0  0
 10 15  1  0  0  0  0
 12 16  1  0  0  0  0
  3 17  1  0  0  0  0
  3 18  1  0  0  0  0
  4 19  1  0  0  0  0
  4 20  1  0  0  0  0
  5 21  1  0  0  0  0
  6 22  1  0  0  0  0
  7 23  1  0  0  0  0
  7 24  1  0  0  0  0
  9 25  1  0  0  0  0
 10 26  1  0  0  0  0
 10 27  1  0  0  0  0
 11 28  1  0  0  0  0
 11 29  1  0  0  0  0
 13 30  1  0  0  0  0
 13 31  1  0  0  0  0
 15 32  1  0  0  0  0
 16 33  1  0  0  0  0
 16 34  1  0  0  0  0
 16 35  1  0  0  0  0
M  END
