 xtb: 6.7.1 (edcfbbe)
          08092617483D

 35 36  0     0  0            999 V2000
   -0.0735   -0.7876   -0.2821 c   0  0  0  0  0  0  0  0  0  0  0  0
    0.5249    0.5043   -0.9026 c   0  0  0  0  0  0  0  0  0  0  0  0
   -0.4581    1.6885   -0.7688 c   0  0  0  0  0  0  0  0  0  0  0  0
   -1.2392    1.7316    0.5430 c   0  0  0  0  0  0  0  0  0  0  0  0
   -1.8051    0.3483    0.8810 c   0  0  0  0  0  0  0  0  0  0  0  0
   -0.6335   -0.6002    1.1457 c   0  0  0  0  0  0  0  0  0  0  0  0
   -1.3827   -1.1106   -1.0302 c   0  0  0  0  0  0  0  0  0  0  0  0
   -2.4339   -0.2790   -0.3353 c   0  0  0  0  0  0  0  0  0  0  0  0
    0.2465   -0.1263    2.1329 o   0  0  0  0  0  0  0  0  0  0  0  0
    0.9195   -1.9565   -0.3319 c   0  0  0  0  0  0  0  0  0  0  0  0
   -3.6856   -0.1271   -0.7277 c   0  0  0  0  0  0  0  0  0  0  0  0
    1.9351    0.8732   -0.4763 c   0  0  0  0  0  0  0  0  0  0  0  0
    2.2522    1.4755    0.6617 c   0  0  0  0  0  0  0  0  0  0  0  0
    0.6008    0.2877   -1.9758 h   0  0  0  0  0  0  0  0  0  0  0  0
    1.9630   -1.8481    0.6168 o   0  0  0  0  0  0  0  0  0  0  0  0
    2.9888    0.6065   -1.5192 c   0  0  0  0  0  0  0  0  0  0  0  0
    0.0952    2.6213   -0.8936 h   0  0  0  0  0  0  0  0  0  0  0  0
   -1.1816    1.6235   -1.5843 h   0  0  0  0  0  0  0  0  0  0  0  0
   -0.6056    2.0491    1.3705 h   0  0  0  0  0  0  0  0  0  0  0  0
   -2.0559    2.4492    0.4452 h   0  0  0  0  0  0  0  0  0  0  0  0
   -2.4856    0.4171    1.7310 h   0  0  0  0  0  0  0  0  0  0  0  0
   -1.0316   -1.5779    1.4715 h   0  0  0  0  0  0  0  0  0  0  0  0
   -1.3246   -0.8943   -2.0966 h   0  0  0  0  0  0  0  0  0  0  0  0
   -1.6261   -2.1708   -0.9225 h   0  0  0  0  0  0  0  0  0  0  0  0
    1.0043   -0.7304    2.1410 h   0  0  0  0  0  0  0  0  0  0  0  0
    1.3313   -2.0625   -1.3448 h   0  0  0  0  0  0  0  0  0  0  0  0
    0.4045   -2.8875   -0.0769 h   0  0  0  0  0  0  0  0  0  0  0  0
   -4.0614   -0.5972   -1.6213 h   0  0  0  0  0  0  0  0  0  0  0  0
   -4.3841    0.4732   -0.1703 h   0  0  0  0  0  0  0  0  0  0  0  0
    3.2725    1.7468    0.8827 h   0  0  0  0  0  0  0  0  0  0  0  0
    1.5288    1.7047    1.4210 h   0  0  0  0  0  0  0  0  0  0  0  0
    2.4523   -1.0308    0.4286 h   0  0  0  0  0  0  0  0  0  0  0  0
    3.9833    0.8244   -1.1364 h   0  0  0  0  0  0  0  0  0  0  0  0
    2.9640   -0.4274   -1.8615 h   0  0  0  0  0  0  0  0  0  0  0  0
    2.8099    1.2411   -2.3881 h   0  0  0  0  0  0  0  0  0  0  0  0
  1  2  1  0  0  0  0
  2  3  1  0  0  0  0
  3  4  1  0  0  0  0
  4  5  1  0  0  0  0
  1  6  1  0  0  0  0
  5  6  1  0  0  0  0
  1  7  1  0  0  0  0
  5  8  1  0  0  0  0
  7  8  1  0  0  0  0
  6  9  1  0  0  0  0
  1 10  1  0  0  0  0
  8 11  2  0  0  0  0
  2 12  1  0  0  0  0
 12 13  2  0  0  0  0
  2 14  1  0  0  0  0
 10 15  1  0  0  0  0
 12 16  1  0  0  0  0
  3 17  1  0  0  0  0
  3 18  1  0  0  0  0
  4 19  1  0  0  0  0
  4 20  1  0  0  0  0
  5 21  1  0  0  0  0
  6 22  1  0  0  0  0
  7 23  1  0  0  0  0
  7 24  1  0  0  0  0
  9 25  1  0  0  0  0
 10 26  1  0  0  0  0
 10 27  1  0  0  0  0
 11 28  1  0  0  0  0
 11 29  1  0  0  0  0
 13 30  1  0  0  0  0
 13 31  1  0  0  0  0
 15 32  1  0  0  0  0
 16 33  1  0  0  0  0
 16 34  1  0  0  0  0
 16 35  1  0  0  0  0
M  END
