 xtb: 6.7.1 (edcfbbe)
          08092620243D

 50 55  0     0  0            999 V2000
   -0.0521    0.5298    2.5032 c   0  0  0  0  0  0  0  0  0  0  0  0
    1.4267    0.8800    2.3353 c   0  0  0  0  0  0  0  0  0  0  0  0
   -2.0998   -3.4430   -0.1412 c   0  0  0  0  0  0  0  0  0  0  0  0
   -3.1940   -2.9955    0.5807 c   0  0  0  0  0  0  0  0  0  0  0  0
   -3.2165   -1.7006    1.0548 c   0  0  0  0  0  0  0  0  0  0  0  0
   -2.1679   -0.8196    0.7876 c   0  0  0  0  0  0  0  0  0  0  0  0
   -1.0943   -1.2468   -0.0080 c   0  0  0  0  0  0  0  0  0  0  0  0
   -1.0668   -2.5697   -0.4298 c   0  0  0  0  0  0  0  0  0  0  0  0
   -2.2190    0.4665    1.3046 n   0  0  0  0  0  0  0  0  0  0  0  0
   -0.9595    1.1628    1.4315 c   0  0  0  0  0  0  0  0  0  0  0  0
   -0.3208    1.1485    0.0259 c   0  0  0  0  0  0  0  0  0  0  0  0
    0.0211   -0.2963   -0.3934 c   0  0  0  0  0  0  0  0  0  0  0  0
    1.0330    1.8391    0.0963 c   0  0  0  0  0  0  0  0  0  0  0  0
    1.8540    0.7851    0.8594 c   0  0  0  0  0  0  0  0  0  0  0  0
    1.3814   -0.5806    0.3091 c   0  0  0  0  0  0  0  0  0  0  0  0
    3.3180    1.0446    0.7137 c   0  0  0  0  0  0  0  0  0  0  0  0
    4.1410    0.1986    0.1212 c   0  0  0  0  0  0  0  0  0  0  0  0
    3.6952   -1.1224   -0.4028 c   0  0  0  0  0  0  0  0  0  0  0  0
    2.2511   -1.2184   -0.7244 n   0  0  0  0  0  0  0  0  0  0  0  0
    1.9002   -0.5045   -1.9705 c   0  0  0  0  0  0  0  0  0  0  0  0
    0.3825   -0.3783   -1.8998 c   0  0  0  0  0  0  0  0  0  0  0  0
    1.9503   -2.5304   -0.8420 o   0  0  0  0  0  0  0  0  0  0  0  0
    1.3033   -1.3324    1.0950 h   0  0  0  0  0  0  0  0  0  0  0  0
   -1.3293    1.8381   -0.8736 c   0  0  0  0  0  0  0  0  0  0  0  0
   -2.0457    1.3110   -1.6907 o   0  0  0  0  0  0  0  0  0  0  0  0
   -1.3559    3.1482   -0.6259 o   0  0  0  0  0  0  0  0  0  0  0  0
   -2.3078    3.9229   -1.3562 c   0  0  0  0  0  0  0  0  0  0  0  0
   -0.3941    0.8535    3.4886 h   0  0  0  0  0  0  0  0  0  0  0  0
   -0.1837   -0.5528    2.4551 h   0  0  0  0  0  0  0  0  0  0  0  0
    1.6140    1.8955    2.6884 h   0  0  0  0  0  0  0  0  0  0  0  0
    2.0281    0.1991    2.9412 h   0  0  0  0  0  0  0  0  0  0  0  0
   -2.0490   -4.4666   -0.4806 h   0  0  0  0  0  0  0  0  0  0  0  0
   -4.0167   -3.6618    0.7966 h   0  0  0  0  0  0  0  0  0  0  0  0
   -4.0496   -1.3519    1.6495 h   0  0  0  0  0  0  0  0  0  0  0  0
   -0.1920   -2.9295   -0.9530 h   0  0  0  0  0  0  0  0  0  0  0  0
   -2.8519    0.5684    2.0859 h   0  0  0  0  0  0  0  0  0  0  0  0
   -1.1716    2.2052    1.6947 h   0  0  0  0  0  0  0  0  0  0  0  0
    0.9847    2.7857    0.6309 h   0  0  0  0  0  0  0  0  0  0  0  0
    1.4299    2.0280   -0.8998 h   0  0  0  0  0  0  0  0  0  0  0  0
    3.6666    1.9906    1.1006 h   0  0  0  0  0  0  0  0  0  0  0  0
    5.1958    0.4076    0.0228 h   0  0  0  0  0  0  0  0  0  0  0  0
    4.2341   -1.4042   -1.3099 h   0  0  0  0  0  0  0  0  0  0  0  0
    3.8807   -1.9100    0.3366 h   0  0  0  0  0  0  0  0  0  0  0  0
    2.4085    0.4596   -1.9833 h   0  0  0  0  0  0  0  0  0  0  0  0
    2.2270   -1.1134   -2.8130 h   0  0  0  0  0  0  0  0  0  0  0  0
   -0.0832   -1.2596   -2.3358 h   0  0  0  0  0  0  0  0  0  0  0  0
    0.0320    0.4891   -2.4525 h   0  0  0  0  0  0  0  0  0  0  0  0
   -3.3162    3.5518   -1.1670 h   0  0  0  0  0  0  0  0  0  0  0  0
   -2.1947    4.9433   -1.0009 h   0  0  0  0  0  0  0  0  0  0  0  0
   -2.1036    3.8587   -2.4261 h   0  0  0  0  0  0  0  0  0  0  0  0
  1  2  1  0  0  0  0
  3  4  4  0  0  0  0
  4  5  4  0  0  0  0
  5  6  4  0  0  0  0
  6  7  4  0  0  0  0
  3  8  4  0  0  0  0
  7  8  4  0  0  0  0
  6  9  1  0  0  0  0
  1 10  1  0  0  0  0
  9 10  1  0  0  0  0
 10 11  1  0  0  0  0
  7 12  1  0  0  0  0
 11 12  1  0  0  0  0
 11 13  1  0  0  0  0
  2 14  1  0  0  0  0
 13 14  1  0  0  0  0
 12 15  1  0  0  0  0
 14 15  1  0  0  0  0
 14 16  1  0  0  0  0
 16 17  2  0  0  0  0
 17 18  1  0  0  0  0
 15 19  1  0  0  0  0
 18 19  1  0  0  0  0
 19 20  1  0  0  0  0
 12 21  1  0  0  0  0
 20 21  1  0  0  0  0
 19 22  1  0  0  0  0
 15 23  1  0  0  0  0
 11 24  1  0  0  0  0
 24 25  2  0  0  0  0
 24 26  1  0  0  0  0
 26 27  1  0  0  0  0
  1 28  1  0  0  0  0
  1 29  1  0  0  0  0
  2 30  1  0  0  0  0
  2 31  1  0  0  0  0
  3 32  1  0  0  0  0
  4 33  1  0  0  0  0
  5 34  1  0  0  0  0
  8 35  1  0  0  0  0
  9 36  1  0  0  0  0
 10 37  1  0  0  0  0
 13 38  1  0  0  0  0
 13 39  1  0  0  0  0
 16 40  1  0  0  0  0
 17 41  1  0  0  0  0
 18 42  1  0  0  0  0
 18 43  1  0  0  0  0
 20 44  1  0  0  0  0
 20 45  1  0  0  0  0
 21 46  1  0  0  0  0
 21 47  1  0  0  0  0
 27 48  1  0  0  0  0
 27 49  1  0  0  0  0
 27 50  1  0  0  0  0
M  END
