 xtb: 6.7.1 (edcfbbe)
          08092613223D

 51 55  0     0  0            999 V2000
    1.3801    1.2755    2.1434 c   0  0  0  0  0  0  0  0  0  0  0  0
    2.5299    1.4332    1.1534 c   0  0  0  0  0  0  0  0  0  0  0  0
    2.1959    0.9416   -0.2704 c   0  0  0  0  0  0  0  0  0  0  0  0
    1.6284   -0.5190   -0.2473 c   0  0  0  0  0  0  0  0  0  0  0  0
    0.3558   -0.4656    0.6309 c   0  0  0  0  0  0  0  0  0  0  0  0
    0.7572   -0.1166    2.0794 c   0  0  0  0  0  0  0  0  0  0  0  0
    1.2400   -0.9639   -1.6650 c   0  0  0  0  0  0  0  0  0  0  0  0
    0.4600   -2.2712   -1.6375 c   0  0  0  0  0  0  0  0  0  0  0  0
   -0.8661   -2.1054   -0.9002 c   0  0  0  0  0  0  0  0  0  0  0  0
   -0.6824   -1.6406    0.5688 c   0  0  0  0  0  0  0  0  0  0  0  0
   -0.4988    0.6543    0.1171 c   0  0  0  0  0  0  0  0  0  0  0  0
   -2.0068   -0.9264    0.9723 c   0  0  0  0  0  0  0  0  0  0  0  0
   -1.8430    0.4382    0.3622 c   0  0  0  0  0  0  0  0  0  0  0  0
   -2.7687    1.3887   -0.0352 c   0  0  0  0  0  0  0  0  0  0  0  0
   -2.3016    2.5245   -0.6988 c   0  0  0  0  0  0  0  0  0  0  0  0
   -0.9594    2.7063   -0.9766 c   0  0  0  0  0  0  0  0  0  0  0  0
   -0.0266    1.7564   -0.5621 c   0  0  0  0  0  0  0  0  0  0  0  0
    1.2911    1.8804   -0.8708 o   0  0  0  0  0  0  0  0  0  0  0  0
   -4.1153    1.2594    0.1785 o   0  0  0  0  0  0  0  0  0  0  0  0
    3.4587    1.0673   -1.1294 c   0  0  0  0  0  0  0  0  0  0  0  0
    2.6864   -1.4950    0.2869 c   0  0  0  0  0  0  0  0  0  0  0  0
   -1.6838   -3.3910   -1.0365 c   0  0  0  0  0  0  0  0  0  0  0  0
   -0.3951   -2.8123    1.5036 c   0  0  0  0  0  0  0  0  0  0  0  0
    1.7500    1.4639    3.1544 h   0  0  0  0  0  0  0  0  0  0  0  0
    0.6128    2.0230    1.9322 h   0  0  0  0  0  0  0  0  0  0  0  0
    3.4098    0.9019    1.5171 h   0  0  0  0  0  0  0  0  0  0  0  0
    2.7973    2.4898    1.0799 h   0  0  0  0  0  0  0  0  0  0  0  0
   -0.1243   -0.1249    2.7211 h   0  0  0  0  0  0  0  0  0  0  0  0
    1.4618   -0.8539    2.4627 h   0  0  0  0  0  0  0  0  0  0  0  0
    0.6278   -0.1965   -2.1428 h   0  0  0  0  0  0  0  0  0  0  0  0
    2.1392   -1.0964   -2.2688 h   0  0  0  0  0  0  0  0  0  0  0  0
    0.2510   -2.5805   -2.6645 h   0  0  0  0  0  0  0  0  0  0  0  0
    1.0554   -3.0603   -1.1774 h   0  0  0  0  0  0  0  0  0  0  0  0
   -1.4135   -1.3065   -1.4146 h   0  0  0  0  0  0  0  0  0  0  0  0
   -2.1054   -0.8702    2.0601 h   0  0  0  0  0  0  0  0  0  0  0  0
   -2.8778   -1.4610    0.5887 h   0  0  0  0  0  0  0  0  0  0  0  0
   -3.0255    3.2589   -1.0141 h   0  0  0  0  0  0  0  0  0  0  0  0
   -0.6258    3.5761   -1.5192 h   0  0  0  0  0  0  0  0  0  0  0  0
   -4.2823    0.4253    0.6314 h   0  0  0  0  0  0  0  0  0  0  0  0
    3.7983    2.0995   -1.0979 h   0  0  0  0  0  0  0  0  0  0  0  0
    4.2511    0.4253   -0.7604 h   0  0  0  0  0  0  0  0  0  0  0  0
    3.2401    0.8201   -2.1633 h   0  0  0  0  0  0  0  0  0  0  0  0
    3.2257   -1.0998    1.1405 h   0  0  0  0  0  0  0  0  0  0  0  0
    2.2199   -2.4248    0.5940 h   0  0  0  0  0  0  0  0  0  0  0  0
    3.4104   -1.7247   -0.4914 h   0  0  0  0  0  0  0  0  0  0  0  0
   -2.6174   -3.3397   -0.4819 h   0  0  0  0  0  0  0  0  0  0  0  0
   -1.9278   -3.5536   -2.0843 h   0  0  0  0  0  0  0  0  0  0  0  0
   -1.1211   -4.2528   -0.6868 h   0  0  0  0  0  0  0  0  0  0  0  0
   -1.2748   -3.4464    1.5830 h   0  0  0  0  0  0  0  0  0  0  0  0
    0.4265   -3.4225    1.1388 h   0  0  0  0  0  0  0  0  0  0  0  0
   -0.1480   -2.4663    2.5027 h   0  0  0  0  0  0  0  0  0  0  0  0
  1  2  1  0  0  0  0
  2  3  1  0  0  0  0
  3  4  1  0  0  0  0
  4  5  1  0  0  0  0
  1  6  1  0  0  0  0
  5  6  1  0  0  0  0
  4  7  1  0  0  0  0
  7  8  1  0  0  0  0
  8  9  1  0  0  0  0
  5 10  1  0  0  0  0
  9 10  1  0  0  0  0
  5 11  1  0  0  0  0
 10 12  1  0  0  0  0
 11 13  4  0  0  0  0
 12 13  1  0  0  0  0
 13 14  4  0  0  0  0
 14 15  4  0  0  0  0
 15 16  4  0  0  0  0
 11 17  4  0  0  0  0
 16 17  4  0  0  0  0
  3 18  1  0  0  0  0
 17 18  1  0  0  0  0
 14 19  1  0  0  0  0
  3 20  1  0  0  0  0
  4 21  1  0  0  0  0
  9 22  1  0  0  0  0
 10 23  1  0  0  0  0
  1 24  1  0  0  0  0
  1 25  1  0  0  0  0
  2 26  1  0  0  0  0
  2 27  1  0  0  0  0
  6 28  1  0  0  0  0
  6 29  1  0  0  0  0
  7 30  1  0  0  0  0
  7 31  1  0  0  0  0
  8 32  1  0  0  0  0
  8 33  1  0  0  0  0
  9 34  1  0  0  0  0
 12 35  1  0  0  0  0
 12 36  1  0  0  0  0
 15 37  1  0  0  0  0
 16 38  1  0  0  0  0
 19 39  1  0  0  0  0
 20 40  1  0  0  0  0
 20 41  1  0  0  0  0
 20 42  1  0  0  0  0
 21 43  1  0  0  0  0
 21 44  1  0  0  0  0
 21 45  1  0  0  0  0
 22 46  1  0  0  0  0
 22 47  1  0  0  0  0
 22 48  1  0  0  0  0
 23 49  1  0  0  0  0
 23 50  1  0  0  0  0
 23 51  1  0  0  0  0
M  END
