 xtb: 6.7.1 (edcfbbe)
          08092620033D

 50 55  0     0  0            999 V2000
    0.0430    0.5345    2.5693 c   0  0  0  0  0  0  0  0  0  0  0  0
    1.5153    0.8739    2.3439 c   0  0  0  0  0  0  0  0  0  0  0  0
   -2.1764   -3.4054   -0.0872 c   0  0  0  0  0  0  0  0  0  0  0  0
   -3.2769   -2.9402    0.6164 c   0  0  0  0  0  0  0  0  0  0  0  0
   -3.2695   -1.6614    1.1297 c   0  0  0  0  0  0  0  0  0  0  0  0
   -2.1792   -0.8129    0.9254 c   0  0  0  0  0  0  0  0  0  0  0  0
   -1.1177   -1.2410    0.1168 c   0  0  0  0  0  0  0  0  0  0  0  0
   -1.1177   -2.5546   -0.3411 c   0  0  0  0  0  0  0  0  0  0  0  0
   -2.1495    0.3971    1.5997 n   0  0  0  0  0  0  0  0  0  0  0  0
   -0.9310    1.1601    1.5506 c   0  0  0  0  0  0  0  0  0  0  0  0
   -0.3365    1.1655    0.1174 c   0  0  0  0  0  0  0  0  0  0  0  0
   -0.0189   -0.2892   -0.3083 c   0  0  0  0  0  0  0  0  0  0  0  0
    1.0220    1.8451    0.1402 c   0  0  0  0  0  0  0  0  0  0  0  0
    1.8775    0.7850    0.8516 c   0  0  0  0  0  0  0  0  0  0  0  0
    1.3776   -0.5741    0.3122 c   0  0  0  0  0  0  0  0  0  0  0  0
    3.3330    1.0433    0.6371 c   0  0  0  0  0  0  0  0  0  0  0  0
    4.1215    0.2085   -0.0150 c   0  0  0  0  0  0  0  0  0  0  0  0
    3.6467   -1.1014   -0.5420 c   0  0  0  0  0  0  0  0  0  0  0  0
    2.1867   -1.1938   -0.7813 n   0  0  0  0  0  0  0  0  0  0  0  0
    1.7632   -0.4620   -1.9946 c   0  0  0  0  0  0  0  0  0  0  0  0
    0.2504   -0.3546   -1.8362 c   0  0  0  0  0  0  0  0  0  0  0  0
    1.8791   -2.5037   -0.9054 o   0  0  0  0  0  0  0  0  0  0  0  0
    1.3448   -1.3360    1.0915 h   0  0  0  0  0  0  0  0  0  0  0  0
   -1.3523    1.8266   -0.7845 c   0  0  0  0  0  0  0  0  0  0  0  0
   -2.4772    1.4215   -0.9814 o   0  0  0  0  0  0  0  0  0  0  0  0
   -0.8909    2.9570   -1.3240 o   0  0  0  0  0  0  0  0  0  0  0  0
   -1.7872    3.6889   -2.1605 c   0  0  0  0  0  0  0  0  0  0  0  0
   -0.2594    0.8536    3.5676 h   0  0  0  0  0  0  0  0  0  0  0  0
   -0.0988   -0.5454    2.5244 h   0  0  0  0  0  0  0  0  0  0  0  0
    1.7286    1.8852    2.6945 h   0  0  0  0  0  0  0  0  0  0  0  0
    2.1330    0.1835    2.9215 h   0  0  0  0  0  0  0  0  0  0  0  0
   -2.1485   -4.4217   -0.4508 h   0  0  0  0  0  0  0  0  0  0  0  0
   -4.1285   -3.5836    0.7846 h   0  0  0  0  0  0  0  0  0  0  0  0
   -4.1049   -1.2983    1.7107 h   0  0  0  0  0  0  0  0  0  0  0  0
   -0.2510   -2.9181   -0.8760 h   0  0  0  0  0  0  0  0  0  0  0  0
   -3.0201    0.9039    1.6115 h   0  0  0  0  0  0  0  0  0  0  0  0
   -1.1505    2.1944    1.8364 h   0  0  0  0  0  0  0  0  0  0  0  0
    1.0020    2.7851    0.6893 h   0  0  0  0  0  0  0  0  0  0  0  0
    1.3744    2.0531   -0.8682 h   0  0  0  0  0  0  0  0  0  0  0  0
    3.7045    1.9803    1.0246 h   0  0  0  0  0  0  0  0  0  0  0  0
    5.1705    0.4168   -0.1633 h   0  0  0  0  0  0  0  0  0  0  0  0
    4.1331   -1.3624   -1.4843 h   0  0  0  0  0  0  0  0  0  0  0  0
    3.8749   -1.9044    0.1683 h   0  0  0  0  0  0  0  0  0  0  0  0
    2.2596    0.5076   -2.0192 h   0  0  0  0  0  0  0  0  0  0  0  0
    2.0482   -1.0545   -2.8636 h   0  0  0  0  0  0  0  0  0  0  0  0
   -0.2280   -1.2379   -2.2550 h   0  0  0  0  0  0  0  0  0  0  0  0
   -0.1391    0.5185   -2.3567 h   0  0  0  0  0  0  0  0  0  0  0  0
   -2.6041    4.0994   -1.5649 h   0  0  0  0  0  0  0  0  0  0  0  0
   -1.1957    4.4849   -2.6041 h   0  0  0  0  0  0  0  0  0  0  0  0
   -2.2052    3.0363   -2.9288 h   0  0  0  0  0  0  0  0  0  0  0  0
  1  2  1  0  0  0  0
  3  4  4  0  0  0  0
  4  5  4  0  0  0  0
  5  6  4  0  0  0  0
  6  7  4  0  0  0  0
  3  8  4  0  0  0  0
  7  8  4  0  0  0  0
  6  9  1  0  0  0  0
  1 10  1  0  0  0  0
  9 10  1  0  0  0  0
 10 11  1  0  0  0  0
  7 12  1  0  0  0  0
 11 12  1  0  0  0  0
 11 13  1  0  0  0  0
  2 14  1  0  0  0  0
 13 14  1  0  0  0  0
 12 15  1  0  0  0  0
 14 15  1  0  0  0  0
 14 16  1  0  0  0  0
 16 17  2  0  0  0  0
 17 18  1  0  0  0  0
 15 19  1  0  0  0  0
 18 19  1  0  0  0  0
 19 20  1  0  0  0  0
 12 21  1  0  0  0  0
 20 21  1  0  0  0  0
 19 22  1  0  0  0  0
 15 23  1  0  0  0  0
 11 24  1  0  0  0  0
 24 25  2  0  0  0  0
 24 26  1  0  0  0  0
 26 27  1  0  0  0  0
  1 28  1  0  0  0  0
  1 29  1  0  0  0  0
  2 30  1  0  0  0  0
  2 31  1  0  0  0  0
  3 32  1  0  0  0  0
  4 33  1  0  0  0  0
  5 34  1  0  0  0  0
  8 35  1  0  0  0  0
  9 36  1  0  0  0  0
 10 37  1  0  0  0  0
 13 38  1  0  0  0  0
 13 39  1  0  0  0  0
 16 40  1  0  0  0  0
 17 41  1  0  0  0  0
 18 42  1  0  0  0  0
 18 43  1  0  0  0  0
 20 44  1  0  0  0  0
 20 45  1  0  0  0  0
 21 46  1  0  0  0  0
 21 47  1  0  0  0  0
 27 48  1  0  0  0  0
 27 49  1  0  0  0  0
 27 50  1  0  0  0  0
M  END
