 xtb: 6.7.1 (edcfbbe)
          08092615283D

 35 36  0     0  0            999 V2000
    0.0912   -0.6179    0.1126 c   0  0  0  0  0  0  0  0  0  0  0  0
   -0.9424    0.4023    0.6544 c   0  0  0  0  0  0  0  0  0  0  0  0
   -0.3319    1.8159    0.7386 c   0  0  0  0  0  0  0  0  0  0  0  0
    0.5697    2.2077   -0.4328 c   0  0  0  0  0  0  0  0  0  0  0  0
    1.4923    1.0495   -0.8217 c   0  0  0  0  0  0  0  0  0  0  0  0
    0.6333   -0.1446   -1.2519 c   0  0  0  0  0  0  0  0  0  0  0  0
    1.3567   -0.5779    0.9948 c   0  0  0  0  0  0  0  0  0  0  0  0
    2.1995    0.5243    0.4017 c   0  0  0  0  0  0  0  0  0  0  0  0
    1.3763   -1.1242   -1.9377 o   0  0  0  0  0  0  0  0  0  0  0  0
   -0.5072   -2.0267    0.0196 c   0  0  0  0  0  0  0  0  0  0  0  0
    3.3588    0.9495    0.8692 c   0  0  0  0  0  0  0  0  0  0  0  0
   -2.2745    0.3604   -0.0668 c   0  0  0  0  0  0  0  0  0  0  0  0
   -2.5398    0.9622   -1.2160 c   0  0  0  0  0  0  0  0  0  0  0  0
   -1.1584    0.0911    1.6839 h   0  0  0  0  0  0  0  0  0  0  0  0
   -0.9717   -2.5257    1.2527 o   0  0  0  0  0  0  0  0  0  0  0  0
   -3.3496   -0.3843    0.6705 c   0  0  0  0  0  0  0  0  0  0  0  0
   -1.1420    2.5414    0.8317 h   0  0  0  0  0  0  0  0  0  0  0  0
    0.2644    1.8765    1.6519 h   0  0  0  0  0  0  0  0  0  0  0  0
   -0.0199    2.4971   -1.3027 h   0  0  0  0  0  0  0  0  0  0  0  0
    1.1719    3.0712   -0.1414 h   0  0  0  0  0  0  0  0  0  0  0  0
    2.1851    1.3626   -1.6063 h   0  0  0  0  0  0  0  0  0  0  0  0
   -0.1699    0.1224   -1.9382 h   0  0  0  0  0  0  0  0  0  0  0  0
    1.8947   -1.5309    0.9424 h   0  0  0  0  0  0  0  0  0  0  0  0
    1.1310   -0.3877    2.0455 h   0  0  0  0  0  0  0  0  0  0  0  0
    2.1803   -1.3028   -1.4360 h   0  0  0  0  0  0  0  0  0  0  0  0
    0.2408   -2.7064   -0.4120 h   0  0  0  0  0  0  0  0  0  0  0  0
   -1.3706   -2.0145   -0.6482 h   0  0  0  0  0  0  0  0  0  0  0  0
    3.8008    0.5345    1.7598 h   0  0  0  0  0  0  0  0  0  0  0  0
    3.9105    1.7354    0.3824 h   0  0  0  0  0  0  0  0  0  0  0  0
   -3.5207    0.8997   -1.6581 h   0  0  0  0  0  0  0  0  0  0  0  0
   -1.8244    1.5455   -1.7655 h   0  0  0  0  0  0  0  0  0  0  0  0
   -0.2290   -2.5694    1.8648 h   0  0  0  0  0  0  0  0  0  0  0  0
   -4.2313   -0.5194    0.0496 h   0  0  0  0  0  0  0  0  0  0  0  0
   -2.9907   -1.3563    1.0003 h   0  0  0  0  0  0  0  0  0  0  0  0
   -3.6378    0.1791    1.5591 h   0  0  0  0  0  0  0  0  0  0  0  0
  1  2  1  0  0  0  0
  2  3  1  0  0  0  0
  3  4  1  0  0  0  0
  4  5  1  0  0  0  0
  1  6  1  0  0  0  0
  5  6  1  0  0  0  0
  1  7  1  0  0  0  0
  5  8  1  0  0  0  0
  7  8  1  0  0  0  0
  6  9  1  0  0  0  0
  1 10  1  0  0  0  0
  8 11  2  0  0  0  0
  2 12  1  0  0  0  0
 12 13  2  0  0  0  0
  2 14  1  0  0  0  0
 10 15  1  0  0  0  0
 12 16  1  0  0  0  0
  3 17  1  0  0  0  0
  3 18  1  0  0  0  0
  4 19  1  0  0  0  0
  4 20  1  0  0  0  0
  5 21  1  0  0  0  0
  6 22  1  0  0  0  0
  7 23  1  0  0  0  0
  7 24  1  0  0  0  0
  9 25  1  0  0  0  0
 10 26  1  0  0  0  0
 10 27  1  0  0  0  0
 11 28  1  0  0  0  0
 11 29  1  0  0  0  0
 13 30  1  0  0  0  0
 13 31  1  0  0  0  0
 15 32  1  0  0  0  0
 16 33  1  0  0  0  0
 16 34  1  0  0  0  0
 16 35  1  0  0  0  0
M  END
