 xtb: 6.7.1 (edcfbbe)
          08092615283D

 35 36  0     0  0            999 V2000
    0.1236   -0.5727    0.4350 c   0  0  0  0  0  0  0  0  0  0  0  0
   -0.9024    0.5440    0.7567 c   0  0  0  0  0  0  0  0  0  0  0  0
   -0.3277    1.9467    0.4593 c   0  0  0  0  0  0  0  0  0  0  0  0
    0.5808    2.0466   -0.7681 c   0  0  0  0  0  0  0  0  0  0  0  0
    1.5360    0.8508   -0.8279 c   0  0  0  0  0  0  0  0  0  0  0  0
    0.6867   -0.4077   -0.9907 c   0  0  0  0  0  0  0  0  0  0  0  0
    1.3863   -0.3479    1.2895 c   0  0  0  0  0  0  0  0  0  0  0  0
    2.2020    0.6474    0.5075 c   0  0  0  0  0  0  0  0  0  0  0  0
    1.5059   -1.4954   -1.3829 o   0  0  0  0  0  0  0  0  0  0  0  0
   -0.4878   -1.9607    0.6672 c   0  0  0  0  0  0  0  0  0  0  0  0
    3.3096    1.2383    0.9168 c   0  0  0  0  0  0  0  0  0  0  0  0
   -2.2856    0.3240    0.1801 c   0  0  0  0  0  0  0  0  0  0  0  0
   -3.2770   -0.0293    0.9881 c   0  0  0  0  0  0  0  0  0  0  0  0
   -1.0426    0.4967    1.8441 h   0  0  0  0  0  0  0  0  0  0  0  0
   -1.2172   -2.3619   -0.4838 o   0  0  0  0  0  0  0  0  0  0  0  0
   -2.5496    0.5317   -1.2801 c   0  0  0  0  0  0  0  0  0  0  0  0
   -1.1543    2.6541    0.3665 h   0  0  0  0  0  0  0  0  0  0  0  0
    0.2610    2.2515    1.3266 h   0  0  0  0  0  0  0  0  0  0  0  0
    0.0019    2.0785   -1.6923 h   0  0  0  0  0  0  0  0  0  0  0  0
    1.1555    2.9726   -0.7041 h   0  0  0  0  0  0  0  0  0  0  0  0
    2.2541    0.9619   -1.6419 h   0  0  0  0  0  0  0  0  0  0  0  0
   -0.1002   -0.2709   -1.7358 h   0  0  0  0  0  0  0  0  0  0  0  0
    1.9513   -1.2794    1.3729 h   0  0  0  0  0  0  0  0  0  0  0  0
    1.1578   -0.0023    2.2975 h   0  0  0  0  0  0  0  0  0  0  0  0
    0.9255   -2.2608   -1.4807 h   0  0  0  0  0  0  0  0  0  0  0  0
   -1.1444   -1.9270    1.5433 h   0  0  0  0  0  0  0  0  0  0  0  0
    0.3118   -2.6900    0.8613 h   0  0  0  0  0  0  0  0  0  0  0  0
    3.7240    1.0540    1.8941 h   0  0  0  0  0  0  0  0  0  0  0  0
    3.8490    1.9269    0.2888 h   0  0  0  0  0  0  0  0  0  0  0  0
   -4.2792   -0.1834    0.6231 h   0  0  0  0  0  0  0  0  0  0  0  0
   -3.1360   -0.1849    2.0455 h   0  0  0  0  0  0  0  0  0  0  0  0
   -1.7708   -3.1163   -0.2531 h   0  0  0  0  0  0  0  0  0  0  0  0
   -2.0609    1.4290   -1.6483 h   0  0  0  0  0  0  0  0  0  0  0  0
   -2.1859   -0.3228   -1.8488 h   0  0  0  0  0  0  0  0  0  0  0  0
   -3.6194    0.6196   -1.4575 h   0  0  0  0  0  0  0  0  0  0  0  0
  1  2  1  0  0  0  0
  2  3  1  0  0  0  0
  3  4  1  0  0  0  0
  4  5  1  0  0  0  0
  1  6  1  0  0  0  0
  5  6  1  0  0  0  0
  1  7  1  0  0  0  0
  5  8  1  0  0  0  0
  7  8  1  0  0  0  0
  6  9  1  0  0  0  0
  1 10  1  0  0  0  0
  8 11  2  0  0  0  0
  2 12  1  0  0  0  0
 12 13  2  0  0  0  0
  2 14  1  0  0  0  0
 10 15  1  0  0  0  0
 12 16  1  0  0  0  0
  3 17  1  0  0  0  0
  3 18  1  0  0  0  0
  4 19  1  0  0  0  0
  4 20  1  0  0  0  0
  5 21  1  0  0  0  0
  6 22  1  0  0  0  0
  7 23  1  0  0  0  0
  7 24  1  0  0  0  0
  9 25  1  0  0  0  0
 10 26  1  0  0  0  0
 10 27  1  0  0  0  0
 11 28  1  0  0  0  0
 11 29  1  0  0  0  0
 13 30  1  0  0  0  0
 13 31  1  0  0  0  0
 15 32  1  0  0  0  0
 16 33  1  0  0  0  0
 16 34  1  0  0  0  0
 16 35  1  0  0  0  0
M  END
