 xtb: 6.7.1 (edcfbbe)
          08092617053D

 35 36  0     0  0            999 V2000
   -0.0377   -0.5653    0.2836 c   0  0  0  0  0  0  0  0  0  0  0  0
   -1.0096    0.5578    0.7273 c   0  0  0  0  0  0  0  0  0  0  0  0
   -0.3529    1.9514    0.6140 c   0  0  0  0  0  0  0  0  0  0  0  0
    0.5673    2.1504   -0.5912 c   0  0  0  0  0  0  0  0  0  0  0  0
    1.4550    0.9198   -0.8015 c   0  0  0  0  0  0  0  0  0  0  0  0
    0.5415   -0.2668   -1.1119 c   0  0  0  0  0  0  0  0  0  0  0  0
    1.2273   -0.5055    1.1617 c   0  0  0  0  0  0  0  0  0  0  0  0
    2.1118    0.5102    0.4930 c   0  0  0  0  0  0  0  0  0  0  0  0
    1.2587   -1.3960   -1.5990 o   0  0  0  0  0  0  0  0  0  0  0  0
   -0.7469   -1.9258    0.3742 c   0  0  0  0  0  0  0  0  0  0  0  0
    3.2667    0.9636    0.9457 c   0  0  0  0  0  0  0  0  0  0  0  0
   -2.3958    0.4984    0.1170 c   0  0  0  0  0  0  0  0  0  0  0  0
   -3.4229    0.1309    0.8716 c   0  0  0  0  0  0  0  0  0  0  0  0
   -1.1717    0.3823    1.7972 h   0  0  0  0  0  0  0  0  0  0  0  0
    0.1188   -3.0323    0.2737 o   0  0  0  0  0  0  0  0  0  0  0  0
   -2.6267    0.8969   -1.3110 c   0  0  0  0  0  0  0  0  0  0  0  0
   -1.1361    2.7120    0.6109 h   0  0  0  0  0  0  0  0  0  0  0  0
    0.2456    2.1096    1.5128 h   0  0  0  0  0  0  0  0  0  0  0  0
   -0.0038    2.3294   -1.5040 h   0  0  0  0  0  0  0  0  0  0  0  0
    1.1928    3.0277   -0.4148 h   0  0  0  0  0  0  0  0  0  0  0  0
    2.1812    1.1107   -1.5972 h   0  0  0  0  0  0  0  0  0  0  0  0
   -0.2305   -0.0085   -1.8433 h   0  0  0  0  0  0  0  0  0  0  0  0
    1.7139   -1.4843    1.1613 h   0  0  0  0  0  0  0  0  0  0  0  0
    1.0045   -0.2490    2.1970 h   0  0  0  0  0  0  0  0  0  0  0  0
    1.8299   -1.1061   -2.3205 h   0  0  0  0  0  0  0  0  0  0  0  0
   -1.5201   -1.9821   -0.4055 h   0  0  0  0  0  0  0  0  0  0  0  0
   -1.2364   -2.0209    1.3470 h   0  0  0  0  0  0  0  0  0  0  0  0
    3.6748    0.6339    1.8862 h   0  0  0  0  0  0  0  0  0  0  0  0
    3.8497    1.6834    0.3956 h   0  0  0  0  0  0  0  0  0  0  0  0
   -4.4282    0.0953    0.4854 h   0  0  0  0  0  0  0  0  0  0  0  0
   -3.3074   -0.1589    1.9025 h   0  0  0  0  0  0  0  0  0  0  0  0
    0.6686   -2.8830   -0.5112 h   0  0  0  0  0  0  0  0  0  0  0  0
   -2.0907    1.8084   -1.5597 h   0  0  0  0  0  0  0  0  0  0  0  0
   -2.3021    0.1084   -1.9891 h   0  0  0  0  0  0  0  0  0  0  0  0
   -3.6879    1.0625   -1.4832 h   0  0  0  0  0  0  0  0  0  0  0  0
  1  2  1  0  0  0  0
  2  3  1  0  0  0  0
  3  4  1  0  0  0  0
  4  5  1  0  0  0  0
  1  6  1  0  0  0  0
  5  6  1  0  0  0  0
  1  7  1  0  0  0  0
  5  8  1  0  0  0  0
  7  8  1  0  0  0  0
  6  9  1  0  0  0  0
  1 10  1  0  0  0  0
  8 11  2  0  0  0  0
  2 12  1  0  0  0  0
 12 13  2  0  0  0  0
  2 14  1  0  0  0  0
 10 15  1  0  0  0  0
 12 16  1  0  0  0  0
  3 17  1  0  0  0  0
  3 18  1  0  0  0  0
  4 19  1  0  0  0  0
  4 20  1  0  0  0  0
  5 21  1  0  0  0  0
  6 22  1  0  0  0  0
  7 23  1  0  0  0  0
  7 24  1  0  0  0  0
  9 25  1  0  0  0  0
 10 26  1  0  0  0  0
 10 27  1  0  0  0  0
 11 28  1  0  0  0  0
 11 29  1  0  0  0  0
 13 30  1  0  0  0  0
 13 31  1  0  0  0  0
 15 32  1  0  0  0  0
 16 33  1  0  0  0  0
 16 34  1  0  0  0  0
 16 35  1  0  0  0  0
M  END
