 xtb: 6.7.1 (edcfbbe)
          08092620243D

 50 55  0     0  0            999 V2000
    0.0419    0.5069    2.5822 c   0  0  0  0  0  0  0  0  0  0  0  0
    1.5408    0.7595    2.4202 c   0  0  0  0  0  0  0  0  0  0  0  0
   -2.2354   -3.2096   -0.2634 c   0  0  0  0  0  0  0  0  0  0  0  0
   -3.2865   -2.7609    0.5192 c   0  0  0  0  0  0  0  0  0  0  0  0
   -3.2340   -1.5007    1.0773 c   0  0  0  0  0  0  0  0  0  0  0  0
   -2.1501   -0.6545    0.8393 c   0  0  0  0  0  0  0  0  0  0  0  0
   -1.1169   -1.0798   -0.0097 c   0  0  0  0  0  0  0  0  0  0  0  0
   -1.1666   -2.3699   -0.5213 c   0  0  0  0  0  0  0  0  0  0  0  0
   -2.1307    0.5995    1.4238 n   0  0  0  0  0  0  0  0  0  0  0  0
   -0.8467    1.2418    1.5556 c   0  0  0  0  0  0  0  0  0  0  0  0
   -0.2074    1.2725    0.1504 c   0  0  0  0  0  0  0  0  0  0  0  0
    0.0410   -0.1647   -0.3542 c   0  0  0  0  0  0  0  0  0  0  0  0
    1.1864    1.8717    0.2576 c   0  0  0  0  0  0  0  0  0  0  0  0
    1.9507    0.7260    0.9373 c   0  0  0  0  0  0  0  0  0  0  0  0
    1.3913   -0.5702    0.3060 c   0  0  0  0  0  0  0  0  0  0  0  0
    3.4259    0.9060    0.7879 c   0  0  0  0  0  0  0  0  0  0  0  0
    4.1891    0.0566    0.1246 c   0  0  0  0  0  0  0  0  0  0  0  0
    3.6588   -1.1961   -0.4824 c   0  0  0  0  0  0  0  0  0  0  0  0
    2.2074   -1.1849   -0.7842 n   0  0  0  0  0  0  0  0  0  0  0  0
    1.8826   -0.3687   -1.9735 c   0  0  0  0  0  0  0  0  0  0  0  0
    0.3756   -0.1569   -1.8694 c   0  0  0  0  0  0  0  0  0  0  0  0
    1.8269   -2.4655   -0.9871 o   0  0  0  0  0  0  0  0  0  0  0  0
    1.2798   -1.3668    1.0425 h   0  0  0  0  0  0  0  0  0  0  0  0
   -1.1190    2.0996   -0.7358 c   0  0  0  0  0  0  0  0  0  0  0  0
   -0.9271    3.2735   -0.9751 o   0  0  0  0  0  0  0  0  0  0  0  0
   -2.1585    1.4212   -1.1939 o   0  0  0  0  0  0  0  0  0  0  0  0
   -3.1096    2.1325   -1.9841 c   0  0  0  0  0  0  0  0  0  0  0  0
   -0.2696    0.8012    3.5867 h   0  0  0  0  0  0  0  0  0  0  0  0
   -0.1598   -0.5614    2.4810 h   0  0  0  0  0  0  0  0  0  0  0  0
    1.8047    1.7357    2.8308 h   0  0  0  0  0  0  0  0  0  0  0  0
    2.0938    0.0016    2.9790 h   0  0  0  0  0  0  0  0  0  0  0  0
   -2.2444   -4.2088   -0.6724 h   0  0  0  0  0  0  0  0  0  0  0  0
   -4.1345   -3.4012    0.7149 h   0  0  0  0  0  0  0  0  0  0  0  0
   -4.0342   -1.1536    1.7164 h   0  0  0  0  0  0  0  0  0  0  0  0
   -0.3240   -2.7360   -1.0909 h   0  0  0  0  0  0  0  0  0  0  0  0
   -2.7566    0.7057    2.2089 h   0  0  0  0  0  0  0  0  0  0  0  0
   -1.0118    2.2774    1.8768 h   0  0  0  0  0  0  0  0  0  0  0  0
    1.1952    2.7835    0.8522 h   0  0  0  0  0  0  0  0  0  0  0  0
    1.5803    2.1153   -0.7277 h   0  0  0  0  0  0  0  0  0  0  0  0
    3.8353    1.8008    1.2326 h   0  0  0  0  0  0  0  0  0  0  0  0
    5.2532    0.2091    0.0237 h   0  0  0  0  0  0  0  0  0  0  0  0
    4.1682   -1.4439   -1.4161 h   0  0  0  0  0  0  0  0  0  0  0  0
    3.8069   -2.0433    0.1971 h   0  0  0  0  0  0  0  0  0  0  0  0
    2.4448    0.5639   -1.9302 h   0  0  0  0  0  0  0  0  0  0  0  0
    2.1632   -0.9373   -2.8599 h   0  0  0  0  0  0  0  0  0  0  0  0
   -0.1500   -0.9702   -2.3659 h   0  0  0  0  0  0  0  0  0  0  0  0
    0.0849    0.7784   -2.3442 h   0  0  0  0  0  0  0  0  0  0  0  0
   -3.5849    2.9116   -1.3861 h   0  0  0  0  0  0  0  0  0  0  0  0
   -2.6187    2.5951   -2.8423 h   0  0  0  0  0  0  0  0  0  0  0  0
   -3.8372    1.3924   -2.3043 h   0  0  0  0  0  0  0  0  0  0  0  0
  1  2  1  0  0  0  0
  3  4  4  0  0  0  0
  4  5  4  0  0  0  0
  5  6  4  0  0  0  0
  6  7  4  0  0  0  0
  3  8  4  0  0  0  0
  7  8  4  0  0  0  0
  6  9  1  0  0  0  0
  1 10  1  0  0  0  0
  9 10  1  0  0  0  0
 10 11  1  0  0  0  0
  7 12  1  0  0  0  0
 11 12  1  0  0  0  0
 11 13  1  0  0  0  0
  2 14  1  0  0  0  0
 13 14  1  0  0  0  0
 12 15  1  0  0  0  0
 14 15  1  0  0  0  0
 14 16  1  0  0  0  0
 16 17  2  0  0  0  0
 17 18  1  0  0  0  0
 15 19  1  0  0  0  0
 18 19  1  0  0  0  0
 19 20  1  0  0  0  0
 12 21  1  0  0  0  0
 20 21  1  0  0  0  0
 19 22  1  0  0  0  0
 15 23  1  0  0  0  0
 11 24  1  0  0  0  0
 24 25  2  0  0  0  0
 24 26  1  0  0  0  0
 26 27  1  0  0  0  0
  1 28  1  0  0  0  0
  1 29  1  0  0  0  0
  2 30  1  0  0  0  0
  2 31  1  0  0  0  0
  3 32  1  0  0  0  0
  4 33  1  0  0  0  0
  5 34  1  0  0  0  0
  8 35  1  0  0  0  0
  9 36  1  0  0  0  0
 10 37  1  0  0  0  0
 13 38  1  0  0  0  0
 13 39  1  0  0  0  0
 16 40  1  0  0  0  0
 17 41  1  0  0  0  0
 18 42  1  0  0  0  0
 18 43  1  0  0  0  0
 20 44  1  0  0  0  0
 20 45  1  0  0  0  0
 21 46  1  0  0  0  0
 21 47  1  0  0  0  0
 27 48  1  0  0  0  0
 27 49  1  0  0  0  0
 27 50  1  0  0  0  0
M  END
