 xtb: 6.7.1 (edcfbbe)
          08092616283D

 35 36  0     0  0            999 V2000
    0.0914   -0.6478    0.0770 c   0  0  0  0  0  0  0  0  0  0  0  0
   -0.9523    0.3088    0.7170 c   0  0  0  0  0  0  0  0  0  0  0  0
   -0.3529    1.7144    0.9030 c   0  0  0  0  0  0  0  0  0  0  0  0
    0.4729    2.2104   -0.2845 c   0  0  0  0  0  0  0  0  0  0  0  0
    1.4311    1.1140   -0.7625 c   0  0  0  0  0  0  0  0  0  0  0  0
    0.6042   -0.0778   -1.2547 c   0  0  0  0  0  0  0  0  0  0  0  0
    1.3816   -0.6421    0.9251 c   0  0  0  0  0  0  0  0  0  0  0  0
    2.1744    0.5311    0.4119 c   0  0  0  0  0  0  0  0  0  0  0  0
    1.3997   -1.0537   -1.9108 o   0  0  0  0  0  0  0  0  0  0  0  0
   -0.4667   -2.0671   -0.0842 c   0  0  0  0  0  0  0  0  0  0  0  0
    3.3225    0.9692    0.8952 c   0  0  0  0  0  0  0  0  0  0  0  0
   -2.3128    0.3019    0.0426 c   0  0  0  0  0  0  0  0  0  0  0  0
   -3.2392   -0.5499    0.4618 c   0  0  0  0  0  0  0  0  0  0  0  0
   -1.1331   -0.1002    1.7183 h   0  0  0  0  0  0  0  0  0  0  0  0
   -0.8216   -2.6682    1.1439 o   0  0  0  0  0  0  0  0  0  0  0  0
   -2.6384    1.2835   -1.0455 c   0  0  0  0  0  0  0  0  0  0  0  0
   -1.1541    2.4216    1.1234 h   0  0  0  0  0  0  0  0  0  0  0  0
    0.3000    1.6935    1.7776 h   0  0  0  0  0  0  0  0  0  0  0  0
   -0.1673    2.5071   -1.1153 h   0  0  0  0  0  0  0  0  0  0  0  0
    1.0484    3.0854    0.0247 h   0  0  0  0  0  0  0  0  0  0  0  0
    2.1024    1.5051   -1.5320 h   0  0  0  0  0  0  0  0  0  0  0  0
   -0.2093    0.2201   -1.9247 h   0  0  0  0  0  0  0  0  0  0  0  0
    1.9452   -1.5604    0.7383 h   0  0  0  0  0  0  0  0  0  0  0  0
    1.1862   -0.5685    1.9951 h   0  0  0  0  0  0  0  0  0  0  0  0
    1.8746   -0.6193   -2.6305 h   0  0  0  0  0  0  0  0  0  0  0  0
    0.2758   -2.6798   -0.6104 h   0  0  0  0  0  0  0  0  0  0  0  0
   -1.3825   -2.0471   -0.6783 h   0  0  0  0  0  0  0  0  0  0  0  0
    3.7928    0.5084    1.7479 h   0  0  0  0  0  0  0  0  0  0  0  0
    3.8387    1.8079    0.4590 h   0  0  0  0  0  0  0  0  0  0  0  0
   -4.2209   -0.5870    0.0181 h   0  0  0  0  0  0  0  0  0  0  0  0
   -3.0487   -1.2626    1.2464 h   0  0  0  0  0  0  0  0  0  0  0  0
   -0.0268   -2.7187    1.6904 h   0  0  0  0  0  0  0  0  0  0  0  0
   -2.0281    1.1175   -1.9308 h   0  0  0  0  0  0  0  0  0  0  0  0
   -3.6820    1.1796   -1.3338 h   0  0  0  0  0  0  0  0  0  0  0  0
   -2.4782    2.3061   -0.7106 h   0  0  0  0  0  0  0  0  0  0  0  0
  1  2  1  0  0  0  0
  2  3  1  0  0  0  0
  3  4  1  0  0  0  0
  4  5  1  0  0  0  0
  1  6  1  0  0  0  0
  5  6  1  0  0  0  0
  1  7  1  0  0  0  0
  5  8  1  0  0  0  0
  7  8  1  0  0  0  0
  6  9  1  0  0  0  0
  1 10  1  0  0  0  0
  8 11  2  0  0  0  0
  2 12  1  0  0  0  0
 12 13  2  0  0  0  0
  2 14  1  0  0  0  0
 10 15  1  0  0  0  0
 12 16  1  0  0  0  0
  3 17  1  0  0  0  0
  3 18  1  0  0  0  0
  4 19  1  0  0  0  0
  4 20  1  0  0  0  0
  5 21  1  0  0  0  0
  6 22  1  0  0  0  0
  7 23  1  0  0  0  0
  7 24  1  0  0  0  0
  9 25  1  0  0  0  0
 10 26  1  0  0  0  0
 10 27  1  0  0  0  0
 11 28  1  0  0  0  0
 11 29  1  0  0  0  0
 13 30  1  0  0  0  0
 13 31  1  0  0  0  0
 15 32  1  0  0  0  0
 16 33  1  0  0  0  0
 16 34  1  0  0  0  0
 16 35  1  0  0  0  0
M  END
