 xtb: 6.7.1 (edcfbbe)
          08092620033D

 50 55  0     0  0            999 V2000
    0.0196    0.5046    2.5712 c   0  0  0  0  0  0  0  0  0  0  0  0
    1.4957    0.8385    2.3597 c   0  0  0  0  0  0  0  0  0  0  0  0
   -2.1337   -3.4150   -0.0454 c   0  0  0  0  0  0  0  0  0  0  0  0
   -3.2417   -2.9604    0.6534 c   0  0  0  0  0  0  0  0  0  0  0  0
   -3.2571   -1.6760    1.1527 c   0  0  0  0  0  0  0  0  0  0  0  0
   -2.1842   -0.8117    0.9328 c   0  0  0  0  0  0  0  0  0  0  0  0
   -1.1209   -1.2316    0.1273 c   0  0  0  0  0  0  0  0  0  0  0  0
   -1.0899   -2.5513   -0.3127 c   0  0  0  0  0  0  0  0  0  0  0  0
   -2.1732    0.4108    1.6005 n   0  0  0  0  0  0  0  0  0  0  0  0
   -0.9447    1.1576    1.5610 c   0  0  0  0  0  0  0  0  0  0  0  0
   -0.3424    1.1801    0.1318 c   0  0  0  0  0  0  0  0  0  0  0  0
   -0.0326   -0.2726   -0.3061 c   0  0  0  0  0  0  0  0  0  0  0  0
    1.0206    1.8501    0.1710 c   0  0  0  0  0  0  0  0  0  0  0  0
    1.8674    0.7741    0.8684 c   0  0  0  0  0  0  0  0  0  0  0  0
    1.3652   -0.5707    0.3019 c   0  0  0  0  0  0  0  0  0  0  0  0
    3.3246    1.0281    0.6634 c   0  0  0  0  0  0  0  0  0  0  0  0
    4.1074    0.2076   -0.0144 c   0  0  0  0  0  0  0  0  0  0  0  0
    3.6277   -1.0847   -0.5777 c   0  0  0  0  0  0  0  0  0  0  0  0
    2.1632   -1.1815   -0.8123 n   0  0  0  0  0  0  0  0  0  0  0  0
    1.7318   -0.4204   -2.0097 c   0  0  0  0  0  0  0  0  0  0  0  0
    0.2197   -0.3372   -1.8363 c   0  0  0  0  0  0  0  0  0  0  0  0
    1.8554   -2.4644   -0.9543 o   0  0  0  0  0  0  0  0  0  0  0  0
    1.3347   -1.3479    1.0664 h   0  0  0  0  0  0  0  0  0  0  0  0
   -1.3493    1.8605   -0.7693 c   0  0  0  0  0  0  0  0  0  0  0  0
   -2.4960    1.5224   -0.9114 o   0  0  0  0  0  0  0  0  0  0  0  0
   -0.8321    2.9378   -1.3825 o   0  0  0  0  0  0  0  0  0  0  0  0
   -1.7221    3.6585   -2.2236 c   0  0  0  0  0  0  0  0  0  0  0  0
   -0.2841    0.8051    3.5751 h   0  0  0  0  0  0  0  0  0  0  0  0
   -0.1284   -0.5732    2.5045 h   0  0  0  0  0  0  0  0  0  0  0  0
    1.7139    1.8424    2.7310 h   0  0  0  0  0  0  0  0  0  0  0  0
    2.1076    0.1353    2.9287 h   0  0  0  0  0  0  0  0  0  0  0  0
   -2.0891   -4.4360   -0.3924 h   0  0  0  0  0  0  0  0  0  0  0  0
   -4.0810   -3.6167    0.8324 h   0  0  0  0  0  0  0  0  0  0  0  0
   -4.0947   -1.3210    1.7352 h   0  0  0  0  0  0  0  0  0  0  0  0
   -0.2093   -2.9013   -0.8354 h   0  0  0  0  0  0  0  0  0  0  0  0
   -3.0261    0.9407    1.5089 h   0  0  0  0  0  0  0  0  0  0  0  0
   -1.1495    2.1909    1.8652 h   0  0  0  0  0  0  0  0  0  0  0  0
    1.0055    2.7831    0.7341 h   0  0  0  0  0  0  0  0  0  0  0  0
    1.3813    2.0731   -0.8317 h   0  0  0  0  0  0  0  0  0  0  0  0
    3.7034    1.9519    1.0765 h   0  0  0  0  0  0  0  0  0  0  0  0
    5.1570    0.4202   -0.1576 h   0  0  0  0  0  0  0  0  0  0  0  0
    4.1122   -1.3165   -1.5289 h   0  0  0  0  0  0  0  0  0  0  0  0
    3.8600   -1.9084    0.1069 h   0  0  0  0  0  0  0  0  0  0  0  0
    2.2182    0.5564   -2.0249 h   0  0  0  0  0  0  0  0  0  0  0  0
    2.0162   -0.9945   -2.8912 h   0  0  0  0  0  0  0  0  0  0  0  0
   -0.2411   -1.2360   -2.2417 h   0  0  0  0  0  0  0  0  0  0  0  0
   -0.1928    0.5241   -2.3586 h   0  0  0  0  0  0  0  0  0  0  0  0
   -2.5329    4.0911   -1.6343 h   0  0  0  0  0  0  0  0  0  0  0  0
   -1.1309    4.4411   -2.6918 h   0  0  0  0  0  0  0  0  0  0  0  0
   -2.1534    2.9960   -2.9769 h   0  0  0  0  0  0  0  0  0  0  0  0
  1  2  1  0  0  0  0
  3  4  4  0  0  0  0
  4  5  4  0  0  0  0
  5  6  4  0  0  0  0
  6  7  4  0  0  0  0
  3  8  4  0  0  0  0
  7  8  4  0  0  0  0
  6  9  1  0  0  0  0
  1 10  1  0  0  0  0
  9 10  1  0  0  0  0
 10 11  1  0  0  0  0
  7 12  1  0  0  0  0
 11 12  1  0  0  0  0
 11 13  1  0  0  0  0
  2 14  1  0  0  0  0
 13 14  1  0  0  0  0
 12 15  1  0  0  0  0
 14 15  1  0  0  0  0
 14 16  1  0  0  0  0
 16 17  2  0  0  0  0
 17 18  1  0  0  0  0
 15 19  1  0  0  0  0
 18 19  1  0  0  0  0
 19 20  1  0  0  0  0
 12 21  1  0  0  0  0
 20 21  1  0  0  0  0
 19 22  1  0  0  0  0
 15 23  1  0  0  0  0
 11 24  1  0  0  0  0
 24 25  2  0  0  0  0
 24 26  1  0  0  0  0
 26 27  1  0  0  0  0
  1 28  1  0  0  0  0
  1 29  1  0  0  0  0
  2 30  1  0  0  0  0
  2 31  1  0  0  0  0
  3 32  1  0  0  0  0
  4 33  1  0  0  0  0
  5 34  1  0  0  0  0
  8 35  1  0  0  0  0
  9 36  1  0  0  0  0
 10 37  1  0  0  0  0
 13 38  1  0  0  0  0
 13 39  1  0  0  0  0
 16 40  1  0  0  0  0
 17 41  1  0  0  0  0
 18 42  1  0  0  0  0
 18 43  1  0  0  0  0
 20 44  1  0  0  0  0
 20 45  1  0  0  0  0
 21 46  1  0  0  0  0
 21 47  1  0  0  0  0
 27 48  1  0  0  0  0
 27 49  1  0  0  0  0
 27 50  1  0  0  0  0
M  END
