 xtb: 6.7.1 (edcfbbe)
          08092616283D

 35 36  0     0  0            999 V2000
    0.0868   -0.6286    0.1069 c   0  0  0  0  0  0  0  0  0  0  0  0
   -0.9421    0.3997    0.6525 c   0  0  0  0  0  0  0  0  0  0  0  0
   -0.3175    1.8098    0.7362 c   0  0  0  0  0  0  0  0  0  0  0  0
    0.5823    2.2005   -0.4371 c   0  0  0  0  0  0  0  0  0  0  0  0
    1.4958    1.0349   -0.8242 c   0  0  0  0  0  0  0  0  0  0  0  0
    0.6227   -0.1446   -1.2568 c   0  0  0  0  0  0  0  0  0  0  0  0
    1.3586   -0.6027    0.9760 c   0  0  0  0  0  0  0  0  0  0  0  0
    2.1973    0.5057    0.3998 c   0  0  0  0  0  0  0  0  0  0  0  0
    1.4448   -1.0906   -1.9194 o   0  0  0  0  0  0  0  0  0  0  0  0
   -0.5069   -2.0409    0.0283 c   0  0  0  0  0  0  0  0  0  0  0  0
    3.3457    0.9442    0.8814 c   0  0  0  0  0  0  0  0  0  0  0  0
   -2.2858    0.3881   -0.0545 c   0  0  0  0  0  0  0  0  0  0  0  0
   -2.5456    0.9993   -1.2010 c   0  0  0  0  0  0  0  0  0  0  0  0
   -1.1451    0.1057    1.6902 h   0  0  0  0  0  0  0  0  0  0  0  0
   -0.8272   -2.5956    1.2857 o   0  0  0  0  0  0  0  0  0  0  0  0
   -3.3922   -0.3176    0.6826 c   0  0  0  0  0  0  0  0  0  0  0  0
   -1.1202    2.5424    0.8404 h   0  0  0  0  0  0  0  0  0  0  0  0
    0.2871    1.8551    1.6440 h   0  0  0  0  0  0  0  0  0  0  0  0
   -0.0050    2.4997   -1.3056 h   0  0  0  0  0  0  0  0  0  0  0  0
    1.1923    3.0565   -0.1424 h   0  0  0  0  0  0  0  0  0  0  0  0
    2.1924    1.3271   -1.6115 h   0  0  0  0  0  0  0  0  0  0  0  0
   -0.1874    0.1592   -1.9270 h   0  0  0  0  0  0  0  0  0  0  0  0
    1.8883   -1.5529    0.8754 h   0  0  0  0  0  0  0  0  0  0  0  0
    1.1446   -0.4578    2.0348 h   0  0  0  0  0  0  0  0  0  0  0  0
    0.8890   -1.7875   -2.2860 h   0  0  0  0  0  0  0  0  0  0  0  0
    0.2342   -2.7268   -0.3910 h   0  0  0  0  0  0  0  0  0  0  0  0
   -1.3905   -2.0366   -0.6276 h   0  0  0  0  0  0  0  0  0  0  0  0
    3.7833    0.5270    1.7730 h   0  0  0  0  0  0  0  0  0  0  0  0
    3.8971    1.7343    0.4004 h   0  0  0  0  0  0  0  0  0  0  0  0
   -3.5330    0.9715   -1.6331 h   0  0  0  0  0  0  0  0  0  0  0  0
   -1.8160    1.5571   -1.7575 h   0  0  0  0  0  0  0  0  0  0  0  0
   -1.4071   -1.9785    1.7519 h   0  0  0  0  0  0  0  0  0  0  0  0
   -3.4911    0.0886    1.6894 h   0  0  0  0  0  0  0  0  0  0  0  0
   -4.3406   -0.1892    0.1665 h   0  0  0  0  0  0  0  0  0  0  0  0
   -3.2001   -1.3862    0.7690 h   0  0  0  0  0  0  0  0  0  0  0  0
  1  2  1  0  0  0  0
  2  3  1  0  0  0  0
  3  4  1  0  0  0  0
  4  5  1  0  0  0  0
  1  6  1  0  0  0  0
  5  6  1  0  0  0  0
  1  7  1  0  0  0  0
  5  8  1  0  0  0  0
  7  8  1  0  0  0  0
  6  9  1  0  0  0  0
  1 10  1  0  0  0  0
  8 11  2  0  0  0  0
  2 12  1  0  0  0  0
 12 13  2  0  0  0  0
  2 14  1  0  0  0  0
 10 15  1  0  0  0  0
 12 16  1  0  0  0  0
  3 17  1  0  0  0  0
  3 18  1  0  0  0  0
  4 19  1  0  0  0  0
  4 20  1  0  0  0  0
  5 21  1  0  0  0  0
  6 22  1  0  0  0  0
  7 23  1  0  0  0  0
  7 24  1  0  0  0  0
  9 25  1  0  0  0  0
 10 26  1  0  0  0  0
 10 27  1  0  0  0  0
 11 28  1  0  0  0  0
 11 29  1  0  0  0  0
 13 30  1  0  0  0  0
 13 31  1  0  0  0  0
 15 32  1  0  0  0  0
 16 33  1  0  0  0  0
 16 34  1  0  0  0  0
 16 35  1  0  0  0  0
M  END
