 xtb: 6.7.1 (edcfbbe)
          08092612213D

 54 57  0     0  0            999 V2000
   -1.2952   -1.5165    1.9424 c   0  0  0  0  0  0  0  0  0  0  0  0
   -2.6870   -1.3326    1.3519 c   0  0  0  0  0  0  0  0  0  0  0  0
   -2.7343   -0.6596   -0.0346 c   0  0  0  0  0  0  0  0  0  0  0  0
   -1.6876    0.5106   -0.1704 c   0  0  0  0  0  0  0  0  0  0  0  0
   -0.2901    0.3031    0.5340 c   0  0  0  0  0  0  0  0  0  0  0  0
   -0.5476   -0.1883    1.9715 c   0  0  0  0  0  0  0  0  0  0  0  0
   -1.3904    0.8023   -1.6473 c   0  0  0  0  0  0  0  0  0  0  0  0
   -0.6015    2.0985   -1.7940 c   0  0  0  0  0  0  0  0  0  0  0  0
    0.7020    2.0875   -0.9905 c   0  0  0  0  0  0  0  0  0  0  0  0
    0.5542    1.6532    0.4968 c   0  0  0  0  0  0  0  0  0  0  0  0
    0.7980   -0.6863   -0.0042 c   0  0  0  0  0  0  0  0  0  0  0  0
    1.9420    1.1812    0.9521 c   0  0  0  0  0  0  0  0  0  0  0  0
    2.0498   -0.1670    0.3461 c   0  0  0  0  0  0  0  0  0  0  0  0
    3.2632   -0.7976    0.1377 c   0  0  0  0  0  0  0  0  0  0  0  0
    3.2630   -2.0486   -0.4566 c   0  0  0  0  0  0  0  0  0  0  0  0
    2.0530   -2.6002   -0.8009 c   0  0  0  0  0  0  0  0  0  0  0  0
    0.8256   -1.9641   -0.5781 c   0  0  0  0  0  0  0  0  0  0  0  0
   -0.2217   -2.7331   -0.9498 o   0  0  0  0  0  0  0  0  0  0  0  0
    4.4128   -0.1568    0.5275 o   0  0  0  0  0  0  0  0  0  0  0  0
   -2.4923   -1.5915   -1.0861 o   0  0  0  0  0  0  0  0  0  0  0  0
   -4.2017   -0.2299   -0.2609 c   0  0  0  0  0  0  0  0  0  0  0  0
   -2.4188    1.7262    0.4285 c   0  0  0  0  0  0  0  0  0  0  0  0
    1.3948    3.4409   -1.1635 c   0  0  0  0  0  0  0  0  0  0  0  0
    0.1900    2.8190    1.4329 c   0  0  0  0  0  0  0  0  0  0  0  0
   -1.3974   -1.9018    2.9600 h   0  0  0  0  0  0  0  0  0  0  0  0
   -0.7294   -2.2524    1.3737 h   0  0  0  0  0  0  0  0  0  0  0  0
   -3.2713   -0.7193    2.0411 h   0  0  0  0  0  0  0  0  0  0  0  0
   -3.1878   -2.3035    1.2822 h   0  0  0  0  0  0  0  0  0  0  0  0
    0.3985   -0.3238    2.4948 h   0  0  0  0  0  0  0  0  0  0  0  0
   -1.1413    0.5357    2.5305 h   0  0  0  0  0  0  0  0  0  0  0  0
   -0.8118   -0.0199   -2.0698 h   0  0  0  0  0  0  0  0  0  0  0  0
   -2.3199    0.8764   -2.2144 h   0  0  0  0  0  0  0  0  0  0  0  0
   -0.3468    2.2343   -2.8484 h   0  0  0  0  0  0  0  0  0  0  0  0
   -1.2185    2.9514   -1.5091 h   0  0  0  0  0  0  0  0  0  0  0  0
    1.3438    1.3304   -1.4543 h   0  0  0  0  0  0  0  0  0  0  0  0
    2.0026    1.1227    2.0415 h   0  0  0  0  0  0  0  0  0  0  0  0
    2.7469    1.8343    0.6189 h   0  0  0  0  0  0  0  0  0  0  0  0
    4.1869   -2.5783   -0.6442 h   0  0  0  0  0  0  0  0  0  0  0  0
    2.0041   -3.5764   -1.2573 h   0  0  0  0  0  0  0  0  0  0  0  0
   -1.0506   -2.2093   -0.9719 h   0  0  0  0  0  0  0  0  0  0  0  0
    5.1669   -0.7148    0.3065 h   0  0  0  0  0  0  0  0  0  0  0  0
   -3.1235   -2.3173   -1.0154 h   0  0  0  0  0  0  0  0  0  0  0  0
   -4.8146   -1.1328   -0.2715 h   0  0  0  0  0  0  0  0  0  0  0  0
   -4.5904    0.4144    0.5184 h   0  0  0  0  0  0  0  0  0  0  0  0
   -4.3140    0.2562   -1.2264 h   0  0  0  0  0  0  0  0  0  0  0  0
   -2.7845    1.5168    1.4292 h   0  0  0  0  0  0  0  0  0  0  0  0
   -1.7890    2.5921    0.4762 h   0  0  0  0  0  0  0  0  0  0  0  0
   -3.2618    1.9889   -0.2029 h   0  0  0  0  0  0  0  0  0  0  0  0
    0.7550    4.2609   -0.8462 h   0  0  0  0  0  0  0  0  0  0  0  0
    2.3227    3.4937   -0.6017 h   0  0  0  0  0  0  0  0  0  0  0  0
    1.6314    3.5931   -2.2146 h   0  0  0  0  0  0  0  0  0  0  0  0
    1.1128    3.2799    1.7819 h   0  0  0  0  0  0  0  0  0  0  0  0
   -0.3775    3.6118    0.9544 h   0  0  0  0  0  0  0  0  0  0  0  0
   -0.3524    2.4790    2.3093 h   0  0  0  0  0  0  0  0  0  0  0  0
  1  2  1  0  0  0  0
  2  3  1  0  0  0  0
  3  4  1  0  0  0  0
  4  5  1  0  0  0  0
  1  6  1  0  0  0  0
  5  6  1  0  0  0  0
  4  7  1  0  0  0  0
  7  8  1  0  0  0  0
  8  9  1  0  0  0  0
  5 10  1  0  0  0  0
  9 10  1  0  0  0  0
  5 11  1  0  0  0  0
 10 12  1  0  0  0  0
 11 13  4  0  0  0  0
 12 13  1  0  0  0  0
 13 14  4  0  0  0  0
 14 15  4  0  0  0  0
 15 16  4  0  0  0  0
 11 17  4  0  0  0  0
 16 17  4  0  0  0  0
 17 18  1  0  0  0  0
 14 19  1  0  0  0  0
  3 20  1  0  0  0  0
  3 21  1  0  0  0  0
  4 22  1  0  0  0  0
  9 23  1  0  0  0  0
 10 24  1  0  0  0  0
  1 25  1  0  0  0  0
  1 26  1  0  0  0  0
  2 27  1  0  0  0  0
  2 28  1  0  0  0  0
  6 29  1  0  0  0  0
  6 30  1  0  0  0  0
  7 31  1  0  0  0  0
  7 32  1  0  0  0  0
  8 33  1  0  0  0  0
  8 34  1  0  0  0  0
  9 35  1  0  0  0  0
 12 36  1  0  0  0  0
 12 37  1  0  0  0  0
 15 38  1  0  0  0  0
 16 39  1  0  0  0  0
 18 40  1  0  0  0  0
 19 41  1  0  0  0  0
 20 42  1  0  0  0  0
 21 43  1  0  0  0  0
 21 44  1  0  0  0  0
 21 45  1  0  0  0  0
 22 46  1  0  0  0  0
 22 47  1  0  0  0  0
 22 48  1  0  0  0  0
 23 49  1  0  0  0  0
 23 50  1  0  0  0  0
 23 51  1  0  0  0  0
 24 52  1  0  0  0  0
 24 53  1  0  0  0  0
 24 54  1  0  0  0  0
M  END
