 xtb: 6.7.1 (edcfbbe)
          08092616283D

 35 36  0     0  0            999 V2000
    0.1245   -0.5730    0.4335 c   0  0  0  0  0  0  0  0  0  0  0  0
   -0.9024    0.5421    0.7575 c   0  0  0  0  0  0  0  0  0  0  0  0
   -0.3297    1.9460    0.4613 c   0  0  0  0  0  0  0  0  0  0  0  0
    0.5782    2.0487   -0.7663 c   0  0  0  0  0  0  0  0  0  0  0  0
    1.5348    0.8540   -0.8279 c   0  0  0  0  0  0  0  0  0  0  0  0
    0.6871   -0.4055   -0.9922 c   0  0  0  0  0  0  0  0  0  0  0  0
    1.3875   -0.3482    1.2876 c   0  0  0  0  0  0  0  0  0  0  0  0
    2.2014    0.6495    0.5070 c   0  0  0  0  0  0  0  0  0  0  0  0
    1.5079   -1.4914   -1.3858 o   0  0  0  0  0  0  0  0  0  0  0  0
   -0.4853   -1.9620    0.6643 c   0  0  0  0  0  0  0  0  0  0  0  0
    3.3084    1.2411    0.9172 c   0  0  0  0  0  0  0  0  0  0  0  0
   -2.2859    0.3220    0.1818 c   0  0  0  0  0  0  0  0  0  0  0  0
   -3.2774   -0.0285    0.9910 c   0  0  0  0  0  0  0  0  0  0  0  0
   -1.0415    0.4932    1.8449 h   0  0  0  0  0  0  0  0  0  0  0  0
   -1.2147   -2.3630   -0.4868 o   0  0  0  0  0  0  0  0  0  0  0  0
   -2.5501    0.5269   -1.2788 c   0  0  0  0  0  0  0  0  0  0  0  0
   -1.1576    2.6521    0.3692 h   0  0  0  0  0  0  0  0  0  0  0  0
    0.2585    2.2509    1.3288 h   0  0  0  0  0  0  0  0  0  0  0  0
   -0.0009    2.0813   -1.6903 h   0  0  0  0  0  0  0  0  0  0  0  0
    1.1520    2.9752   -0.7011 h   0  0  0  0  0  0  0  0  0  0  0  0
    2.2524    0.9671   -1.6420 h   0  0  0  0  0  0  0  0  0  0  0  0
   -0.1001   -0.2689   -1.7370 h   0  0  0  0  0  0  0  0  0  0  0  0
    1.9537   -1.2792    1.3687 h   0  0  0  0  0  0  0  0  0  0  0  0
    1.1593   -0.0050    2.2964 h   0  0  0  0  0  0  0  0  0  0  0  0
    0.9290   -2.2578   -1.4840 h   0  0  0  0  0  0  0  0  0  0  0  0
   -1.1416   -1.9299    1.5407 h   0  0  0  0  0  0  0  0  0  0  0  0
    0.3152   -2.6906    0.8574 h   0  0  0  0  0  0  0  0  0  0  0  0
    3.7229    1.0557    1.8941 h   0  0  0  0  0  0  0  0  0  0  0  0
    3.8469    1.9315    0.2904 h   0  0  0  0  0  0  0  0  0  0  0  0
   -4.2801   -0.1817    0.6269 h   0  0  0  0  0  0  0  0  0  0  0  0
   -3.1361   -0.1819    2.0487 h   0  0  0  0  0  0  0  0  0  0  0  0
   -1.7671   -3.1185   -0.2564 h   0  0  0  0  0  0  0  0  0  0  0  0
   -2.0597    1.4222   -1.6493 h   0  0  0  0  0  0  0  0  0  0  0  0
   -2.1881   -0.3299   -1.8454 h   0  0  0  0  0  0  0  0  0  0  0  0
   -3.6198    0.6163   -1.4561 h   0  0  0  0  0  0  0  0  0  0  0  0
  1  2  1  0  0  0  0
  2  3  1  0  0  0  0
  3  4  1  0  0  0  0
  4  5  1  0  0  0  0
  1  6  1  0  0  0  0
  5  6  1  0  0  0  0
  1  7  1  0  0  0  0
  5  8  1  0  0  0  0
  7  8  1  0  0  0  0
  6  9  1  0  0  0  0
  1 10  1  0  0  0  0
  8 11  2  0  0  0  0
  2 12  1  0  0  0  0
 12 13  2  0  0  0  0
  2 14  1  0  0  0  0
 10 15  1  0  0  0  0
 12 16  1  0  0  0  0
  3 17  1  0  0  0  0
  3 18  1  0  0  0  0
  4 19  1  0  0  0  0
  4 20  1  0  0  0  0
  5 21  1  0  0  0  0
  6 22  1  0  0  0  0
  7 23  1  0  0  0  0
  7 24  1  0  0  0  0
  9 25  1  0  0  0  0
 10 26  1  0  0  0  0
 10 27  1  0  0  0  0
 11 28  1  0  0  0  0
 11 29  1  0  0  0  0
 13 30  1  0  0  0  0
 13 31  1  0  0  0  0
 15 32  1  0  0  0  0
 16 33  1  0  0  0  0
 16 34  1  0  0  0  0
 16 35  1  0  0  0  0
M  END
