 xtb: 6.7.1 (edcfbbe)
          08092615283D

 35 36  0     0  0            999 V2000
    0.1548   -0.6126    0.3706 c   0  0  0  0  0  0  0  0  0  0  0  0
   -0.8870    0.4718    0.7504 c   0  0  0  0  0  0  0  0  0  0  0  0
   -0.3343    1.8954    0.5189 c   0  0  0  0  0  0  0  0  0  0  0  0
    0.5317    2.0583   -0.7297 c   0  0  0  0  0  0  0  0  0  0  0  0
    1.5226    0.8972   -0.8405 c   0  0  0  0  0  0  0  0  0  0  0  0
    0.7293   -0.3998   -1.0404 c   0  0  0  0  0  0  0  0  0  0  0  0
    1.4180   -0.3865    1.2272 c   0  0  0  0  0  0  0  0  0  0  0  0
    2.1996    0.6647    0.4862 c   0  0  0  0  0  0  0  0  0  0  0  0
    1.5660   -1.4915   -1.3570 o   0  0  0  0  0  0  0  0  0  0  0  0
   -0.3924   -2.0356    0.5757 c   0  0  0  0  0  0  0  0  0  0  0  0
    3.2883    1.2772    0.9127 c   0  0  0  0  0  0  0  0  0  0  0  0
   -2.2802    0.3072    0.1789 c   0  0  0  0  0  0  0  0  0  0  0  0
   -3.2793   -0.0332    0.9862 c   0  0  0  0  0  0  0  0  0  0  0  0
   -1.0172    0.3658    1.8354 h   0  0  0  0  0  0  0  0  0  0  0  0
   -1.4166   -2.4135   -0.3054 o   0  0  0  0  0  0  0  0  0  0  0  0
   -2.5493    0.5787   -1.2711 c   0  0  0  0  0  0  0  0  0  0  0  0
   -1.1688    2.5998    0.4885 h   0  0  0  0  0  0  0  0  0  0  0  0
    0.2796    2.1615    1.3812 h   0  0  0  0  0  0  0  0  0  0  0  0
   -0.0755    2.0933   -1.6362 h   0  0  0  0  0  0  0  0  0  0  0  0
    1.0759    3.0025   -0.6588 h   0  0  0  0  0  0  0  0  0  0  0  0
    2.2361    1.0811   -1.6488 h   0  0  0  0  0  0  0  0  0  0  0  0
   -0.0450   -0.2957   -1.8079 h   0  0  0  0  0  0  0  0  0  0  0  0
    2.0006   -1.3092    1.2597 h   0  0  0  0  0  0  0  0  0  0  0  0
    1.1903   -0.0946    2.2524 h   0  0  0  0  0  0  0  0  0  0  0  0
    1.9775   -1.3246   -2.2108 h   0  0  0  0  0  0  0  0  0  0  0  0
   -0.7211   -2.1398    1.6212 h   0  0  0  0  0  0  0  0  0  0  0  0
    0.4175   -2.7435    0.3888 h   0  0  0  0  0  0  0  0  0  0  0  0
    3.7133    1.0702    1.8802 h   0  0  0  0  0  0  0  0  0  0  0  0
    3.8004    2.0091    0.3111 h   0  0  0  0  0  0  0  0  0  0  0  0
   -4.2908   -0.1346    0.6286 h   0  0  0  0  0  0  0  0  0  0  0  0
   -3.1328   -0.2270    2.0359 h   0  0  0  0  0  0  0  0  0  0  0  0
   -2.1933   -1.8674   -0.1260 h   0  0  0  0  0  0  0  0  0  0  0  0
   -2.1563    1.5485   -1.5660 h   0  0  0  0  0  0  0  0  0  0  0  0
   -2.0921   -0.1828   -1.9006 h   0  0  0  0  0  0  0  0  0  0  0  0
   -3.6207    0.5717   -1.4600 h   0  0  0  0  0  0  0  0  0  0  0  0
  1  2  1  0  0  0  0
  2  3  1  0  0  0  0
  3  4  1  0  0  0  0
  4  5  1  0  0  0  0
  1  6  1  0  0  0  0
  5  6  1  0  0  0  0
  1  7  1  0  0  0  0
  5  8  1  0  0  0  0
  7  8  1  0  0  0  0
  6  9  1  0  0  0  0
  1 10  1  0  0  0  0
  8 11  2  0  0  0  0
  2 12  1  0  0  0  0
 12 13  2  0  0  0  0
  2 14  1  0  0  0  0
 10 15  1  0  0  0  0
 12 16  1  0  0  0  0
  3 17  1  0  0  0  0
  3 18  1  0  0  0  0
  4 19  1  0  0  0  0
  4 20  1  0  0  0  0
  5 21  1  0  0  0  0
  6 22  1  0  0  0  0
  7 23  1  0  0  0  0
  7 24  1  0  0  0  0
  9 25  1  0  0  0  0
 10 26  1  0  0  0  0
 10 27  1  0  0  0  0
 11 28  1  0  0  0  0
 11 29  1  0  0  0  0
 13 30  1  0  0  0  0
 13 31  1  0  0  0  0
 15 32  1  0  0  0  0
 16 33  1  0  0  0  0
 16 34  1  0  0  0  0
 16 35  1  0  0  0  0
M  END
