 xtb: 6.7.1 (edcfbbe)
          08092616293D

 35 36  0     0  0            999 V2000
    0.0948   -0.6273    0.1002 c   0  0  0  0  0  0  0  0  0  0  0  0
   -0.9321    0.3959    0.6524 c   0  0  0  0  0  0  0  0  0  0  0  0
   -0.3157    1.8071    0.7388 c   0  0  0  0  0  0  0  0  0  0  0  0
    0.5824    2.2014   -0.4350 c   0  0  0  0  0  0  0  0  0  0  0  0
    1.5024    1.0397   -0.8197 c   0  0  0  0  0  0  0  0  0  0  0  0
    0.6333   -0.1395   -1.2597 c   0  0  0  0  0  0  0  0  0  0  0  0
    1.3647   -0.6077    0.9710 c   0  0  0  0  0  0  0  0  0  0  0  0
    2.1985    0.5102    0.4071 c   0  0  0  0  0  0  0  0  0  0  0  0
    1.4562   -1.0876   -1.9224 o   0  0  0  0  0  0  0  0  0  0  0  0
   -0.5063   -2.0327    0.0158 c   0  0  0  0  0  0  0  0  0  0  0  0
    3.3413    0.9539    0.8974 c   0  0  0  0  0  0  0  0  0  0  0  0
   -2.2727    0.3660   -0.0548 c   0  0  0  0  0  0  0  0  0  0  0  0
   -2.5473    0.9591   -1.2074 c   0  0  0  0  0  0  0  0  0  0  0  0
   -1.1331    0.0744    1.6801 h   0  0  0  0  0  0  0  0  0  0  0  0
   -0.9305   -2.4523    1.3015 o   0  0  0  0  0  0  0  0  0  0  0  0
   -3.3548   -0.3475    0.7052 c   0  0  0  0  0  0  0  0  0  0  0  0
   -1.1224    2.5355    0.8414 h   0  0  0  0  0  0  0  0  0  0  0  0
    0.2867    1.8553    1.6477 h   0  0  0  0  0  0  0  0  0  0  0  0
   -0.0081    2.4939   -1.3038 h   0  0  0  0  0  0  0  0  0  0  0  0
    1.1877    3.0617   -0.1432 h   0  0  0  0  0  0  0  0  0  0  0  0
    2.2025    1.3362   -1.6027 h   0  0  0  0  0  0  0  0  0  0  0  0
   -0.1743    0.1666   -1.9311 h   0  0  0  0  0  0  0  0  0  0  0  0
    1.9027   -1.5520    0.8599 h   0  0  0  0  0  0  0  0  0  0  0  0
    1.1402   -0.4781    2.0289 h   0  0  0  0  0  0  0  0  0  0  0  0
    0.8956   -1.7607   -2.3242 h   0  0  0  0  0  0  0  0  0  0  0  0
    0.2604   -2.7221   -0.3618 h   0  0  0  0  0  0  0  0  0  0  0  0
   -1.3571   -2.0301   -0.6818 h   0  0  0  0  0  0  0  0  0  0  0  0
    3.7754    0.5364    1.7906 h   0  0  0  0  0  0  0  0  0  0  0  0
    3.8904    1.7500    0.4236 h   0  0  0  0  0  0  0  0  0  0  0  0
   -3.5363    0.9075   -1.6347 h   0  0  0  0  0  0  0  0  0  0  0  0
   -1.8323    1.5300   -1.7705 h   0  0  0  0  0  0  0  0  0  0  0  0
   -1.1699   -3.3854    1.2573 h   0  0  0  0  0  0  0  0  0  0  0  0
   -2.9879   -1.2879    1.1088 h   0  0  0  0  0  0  0  0  0  0  0  0
   -3.6660    0.2688    1.5498 h   0  0  0  0  0  0  0  0  0  0  0  0
   -4.2239   -0.5345    0.0789 h   0  0  0  0  0  0  0  0  0  0  0  0
  1  2  1  0  0  0  0
  2  3  1  0  0  0  0
  3  4  1  0  0  0  0
  4  5  1  0  0  0  0
  1  6  1  0  0  0  0
  5  6  1  0  0  0  0
  1  7  1  0  0  0  0
  5  8  1  0  0  0  0
  7  8  1  0  0  0  0
  6  9  1  0  0  0  0
  1 10  1  0  0  0  0
  8 11  2  0  0  0  0
  2 12  1  0  0  0  0
 12 13  2  0  0  0  0
  2 14  1  0  0  0  0
 10 15  1  0  0  0  0
 12 16  1  0  0  0  0
  3 17  1  0  0  0  0
  3 18  1  0  0  0  0
  4 19  1  0  0  0  0
  4 20  1  0  0  0  0
  5 21  1  0  0  0  0
  6 22  1  0  0  0  0
  7 23  1  0  0  0  0
  7 24  1  0  0  0  0
  9 25  1  0  0  0  0
 10 26  1  0  0  0  0
 10 27  1  0  0  0  0
 11 28  1  0  0  0  0
 11 29  1  0  0  0  0
 13 30  1  0  0  0  0
 13 31  1  0  0  0  0
 15 32  1  0  0  0  0
 16 33  1  0  0  0  0
 16 34  1  0  0  0  0
 16 35  1  0  0  0  0
M  END
