 xtb: 6.7.1 (edcfbbe)
          08092615283D

 35 36  0     0  0            999 V2000
    0.0923   -0.6168    0.0978 c   0  0  0  0  0  0  0  0  0  0  0  0
   -0.9377    0.4004    0.6535 c   0  0  0  0  0  0  0  0  0  0  0  0
   -0.3269    1.8139    0.7413 c   0  0  0  0  0  0  0  0  0  0  0  0
    0.5679    2.2092   -0.4342 c   0  0  0  0  0  0  0  0  0  0  0  0
    1.4961    1.0536   -0.8204 c   0  0  0  0  0  0  0  0  0  0  0  0
    0.6355   -0.1363   -1.2563 c   0  0  0  0  0  0  0  0  0  0  0  0
    1.3640   -0.5955    0.9703 c   0  0  0  0  0  0  0  0  0  0  0  0
    2.1968    0.5246    0.4048 c   0  0  0  0  0  0  0  0  0  0  0  0
    1.4043   -1.1711   -1.8513 o   0  0  0  0  0  0  0  0  0  0  0  0
   -0.5055   -2.0251   -0.0095 c   0  0  0  0  0  0  0  0  0  0  0  0
    3.3442    0.9643    0.8883 c   0  0  0  0  0  0  0  0  0  0  0  0
   -2.2791    0.3637   -0.0521 c   0  0  0  0  0  0  0  0  0  0  0  0
   -2.5584    0.9683   -1.1972 c   0  0  0  0  0  0  0  0  0  0  0  0
   -1.1416    0.0801    1.6818 h   0  0  0  0  0  0  0  0  0  0  0  0
   -0.9560   -2.5399    1.2271 o   0  0  0  0  0  0  0  0  0  0  0  0
   -3.3496   -0.3759    0.6981 c   0  0  0  0  0  0  0  0  0  0  0  0
   -1.1357    2.5397    0.8429 h   0  0  0  0  0  0  0  0  0  0  0  0
    0.2760    1.8672    1.6501 h   0  0  0  0  0  0  0  0  0  0  0  0
   -0.0266    2.4939   -1.3029 h   0  0  0  0  0  0  0  0  0  0  0  0
    1.1669    3.0757   -0.1463 h   0  0  0  0  0  0  0  0  0  0  0  0
    2.1960    1.3726   -1.5976 h   0  0  0  0  0  0  0  0  0  0  0  0
   -0.1698    0.1491   -1.9419 h   0  0  0  0  0  0  0  0  0  0  0  0
    1.9062   -1.5376    0.8516 h   0  0  0  0  0  0  0  0  0  0  0  0
    1.1501   -0.4510    2.0296 h   0  0  0  0  0  0  0  0  0  0  0  0
    1.8697   -0.7988   -2.6107 h   0  0  0  0  0  0  0  0  0  0  0  0
    0.2441   -2.6930   -0.4513 h   0  0  0  0  0  0  0  0  0  0  0  0
   -1.3776   -2.0101   -0.6664 h   0  0  0  0  0  0  0  0  0  0  0  0
    3.7834    0.5457    1.7785 h   0  0  0  0  0  0  0  0  0  0  0  0
    3.8913    1.7618    0.4142 h   0  0  0  0  0  0  0  0  0  0  0  0
   -3.5455    0.9111   -1.6272 h   0  0  0  0  0  0  0  0  0  0  0  0
   -1.8475    1.5502   -1.7543 h   0  0  0  0  0  0  0  0  0  0  0  0
   -0.1978   -2.5882    1.8232 h   0  0  0  0  0  0  0  0  0  0  0  0
   -4.2411   -0.5049    0.0895 h   0  0  0  0  0  0  0  0  0  0  0  0
   -2.9918   -1.3513    1.0203 h   0  0  0  0  0  0  0  0  0  0  0  0
   -3.6208    0.1869    1.5923 h   0  0  0  0  0  0  0  0  0  0  0  0
  1  2  1  0  0  0  0
  2  3  1  0  0  0  0
  3  4  1  0  0  0  0
  4  5  1  0  0  0  0
  1  6  1  0  0  0  0
  5  6  1  0  0  0  0
  1  7  1  0  0  0  0
  5  8  1  0  0  0  0
  7  8  1  0  0  0  0
  6  9  1  0  0  0  0
  1 10  1  0  0  0  0
  8 11  2  0  0  0  0
  2 12  1  0  0  0  0
 12 13  2  0  0  0  0
  2 14  1  0  0  0  0
 10 15  1  0  0  0  0
 12 16  1  0  0  0  0
  3 17  1  0  0  0  0
  3 18  1  0  0  0  0
  4 19  1  0  0  0  0
  4 20  1  0  0  0  0
  5 21  1  0  0  0  0
  6 22  1  0  0  0  0
  7 23  1  0  0  0  0
  7 24  1  0  0  0  0
  9 25  1  0  0  0  0
 10 26  1  0  0  0  0
 10 27  1  0  0  0  0
 11 28  1  0  0  0  0
 11 29  1  0  0  0  0
 13 30  1  0  0  0  0
 13 31  1  0  0  0  0
 15 32  1  0  0  0  0
 16 33  1  0  0  0  0
 16 34  1  0  0  0  0
 16 35  1  0  0  0  0
M  END
