 xtb: 6.7.1 (edcfbbe)
          08092616283D

 35 36  0     0  0            999 V2000
   -0.0407   -0.5555    0.2924 c   0  0  0  0  0  0  0  0  0  0  0  0
   -1.0272    0.5724    0.6970 c   0  0  0  0  0  0  0  0  0  0  0  0
   -0.3395    1.9531    0.6325 c   0  0  0  0  0  0  0  0  0  0  0  0
    0.5904    2.1642   -0.5628 c   0  0  0  0  0  0  0  0  0  0  0  0
    1.4523    0.9215   -0.8036 c   0  0  0  0  0  0  0  0  0  0  0  0
    0.5261   -0.2587   -1.1074 c   0  0  0  0  0  0  0  0  0  0  0  0
    1.2195   -0.4813    1.1749 c   0  0  0  0  0  0  0  0  0  0  0  0
    2.1218    0.5009    0.4808 c   0  0  0  0  0  0  0  0  0  0  0  0
    1.2364   -1.3848   -1.6104 o   0  0  0  0  0  0  0  0  0  0  0  0
   -0.7279   -1.9266    0.3918 c   0  0  0  0  0  0  0  0  0  0  0  0
    3.2978    0.9226    0.9087 c   0  0  0  0  0  0  0  0  0  0  0  0
   -2.3587    0.5349   -0.0288 c   0  0  0  0  0  0  0  0  0  0  0  0
   -2.5843    1.0243   -1.2392 c   0  0  0  0  0  0  0  0  0  0  0  0
   -1.2610    0.3920    1.7525 h   0  0  0  0  0  0  0  0  0  0  0  0
    0.1538   -3.0196    0.2772 o   0  0  0  0  0  0  0  0  0  0  0  0
   -3.4957   -0.0304    0.7752 c   0  0  0  0  0  0  0  0  0  0  0  0
   -1.1080    2.7282    0.6368 h   0  0  0  0  0  0  0  0  0  0  0  0
    0.2543    2.0760    1.5399 h   0  0  0  0  0  0  0  0  0  0  0  0
    0.0245    2.3868   -1.4681 h   0  0  0  0  0  0  0  0  0  0  0  0
    1.2368    3.0206   -0.3602 h   0  0  0  0  0  0  0  0  0  0  0  0
    2.1696    1.1094   -1.6078 h   0  0  0  0  0  0  0  0  0  0  0  0
   -0.2671   -0.0036   -1.8191 h   0  0  0  0  0  0  0  0  0  0  0  0
    1.6931   -1.4657    1.2093 h   0  0  0  0  0  0  0  0  0  0  0  0
    0.9929   -0.1887    2.1999 h   0  0  0  0  0  0  0  0  0  0  0  0
    1.7624   -1.0991   -2.3669 h   0  0  0  0  0  0  0  0  0  0  0  0
   -1.5085   -1.9929   -0.3800 h   0  0  0  0  0  0  0  0  0  0  0  0
   -1.1905   -2.0352    1.3766 h   0  0  0  0  0  0  0  0  0  0  0  0
    3.7129    0.5885    1.8447 h   0  0  0  0  0  0  0  0  0  0  0  0
    3.8924    1.6195    0.3418 h   0  0  0  0  0  0  0  0  0  0  0  0
   -3.5679    0.9835   -1.6787 h   0  0  0  0  0  0  0  0  0  0  0  0
   -1.8306    1.4917   -1.8453 h   0  0  0  0  0  0  0  0  0  0  0  0
    0.6890   -2.8623   -0.5159 h   0  0  0  0  0  0  0  0  0  0  0  0
   -3.2643   -1.0295    1.1367 h   0  0  0  0  0  0  0  0  0  0  0  0
   -3.6783    0.6029    1.6438 h   0  0  0  0  0  0  0  0  0  0  0  0
   -4.4071   -0.0748    0.1844 h   0  0  0  0  0  0  0  0  0  0  0  0
  1  2  1  0  0  0  0
  2  3  1  0  0  0  0
  3  4  1  0  0  0  0
  4  5  1  0  0  0  0
  1  6  1  0  0  0  0
  5  6  1  0  0  0  0
  1  7  1  0  0  0  0
  5  8  1  0  0  0  0
  7  8  1  0  0  0  0
  6  9  1  0  0  0  0
  1 10  1  0  0  0  0
  8 11  2  0  0  0  0
  2 12  1  0  0  0  0
 12 13  2  0  0  0  0
  2 14  1  0  0  0  0
 10 15  1  0  0  0  0
 12 16  1  0  0  0  0
  3 17  1  0  0  0  0
  3 18  1  0  0  0  0
  4 19  1  0  0  0  0
  4 20  1  0  0  0  0
  5 21  1  0  0  0  0
  6 22  1  0  0  0  0
  7 23  1  0  0  0  0
  7 24  1  0  0  0  0
  9 25  1  0  0  0  0
 10 26  1  0  0  0  0
 10 27  1  0  0  0  0
 11 28  1  0  0  0  0
 11 29  1  0  0  0  0
 13 30  1  0  0  0  0
 13 31  1  0  0  0  0
 15 32  1  0  0  0  0
 16 33  1  0  0  0  0
 16 34  1  0  0  0  0
 16 35  1  0  0  0  0
M  END
