 xtb: 6.7.1 (edcfbbe)
          08092615283D

 35 36  0     0  0            999 V2000
    0.0816   -0.6212    0.0985 c   0  0  0  0  0  0  0  0  0  0  0  0
   -0.9432    0.4032    0.6537 c   0  0  0  0  0  0  0  0  0  0  0  0
   -0.3191    1.8126    0.7401 c   0  0  0  0  0  0  0  0  0  0  0  0
    0.5769    2.2038   -0.4354 c   0  0  0  0  0  0  0  0  0  0  0  0
    1.4937    1.0408   -0.8234 c   0  0  0  0  0  0  0  0  0  0  0  0
    0.6238   -0.1434   -1.2580 c   0  0  0  0  0  0  0  0  0  0  0  0
    1.3540   -0.6039    0.9668 c   0  0  0  0  0  0  0  0  0  0  0  0
    2.1902    0.5113    0.4045 c   0  0  0  0  0  0  0  0  0  0  0  0
    1.3752   -1.1794   -1.8553 o   0  0  0  0  0  0  0  0  0  0  0  0
   -0.5080   -2.0333   -0.0018 c   0  0  0  0  0  0  0  0  0  0  0  0
    3.3333    0.9570    0.8916 c   0  0  0  0  0  0  0  0  0  0  0  0
   -2.2874    0.3945   -0.0489 c   0  0  0  0  0  0  0  0  0  0  0  0
   -2.5523    1.0153   -1.1882 c   0  0  0  0  0  0  0  0  0  0  0  0
   -1.1420    0.1025    1.6911 h   0  0  0  0  0  0  0  0  0  0  0  0
   -0.7899   -2.6191    1.2454 o   0  0  0  0  0  0  0  0  0  0  0  0
   -3.3882   -0.3256    0.6815 c   0  0  0  0  0  0  0  0  0  0  0  0
   -1.1207    2.5462    0.8477 h   0  0  0  0  0  0  0  0  0  0  0  0
    0.2888    1.8565    1.6460 h   0  0  0  0  0  0  0  0  0  0  0  0
   -0.0153    2.4998   -1.3023 h   0  0  0  0  0  0  0  0  0  0  0  0
    1.1832    3.0640   -0.1434 h   0  0  0  0  0  0  0  0  0  0  0  0
    2.1953    1.3559   -1.6016 h   0  0  0  0  0  0  0  0  0  0  0  0
   -0.1830    0.1559   -1.9391 h   0  0  0  0  0  0  0  0  0  0  0  0
    1.8780   -1.5541    0.8479 h   0  0  0  0  0  0  0  0  0  0  0  0
    1.1418   -0.4743    2.0281 h   0  0  0  0  0  0  0  0  0  0  0  0
    1.8872   -0.8045   -2.5797 h   0  0  0  0  0  0  0  0  0  0  0  0
    0.2276   -2.6860   -0.4743 h   0  0  0  0  0  0  0  0  0  0  0  0
   -1.4024   -2.0099   -0.6411 h   0  0  0  0  0  0  0  0  0  0  0  0
    3.7691    0.5414    1.7841 h   0  0  0  0  0  0  0  0  0  0  0  0
    3.8808    1.7541    0.4172 h   0  0  0  0  0  0  0  0  0  0  0  0
   -3.5397    0.9860   -1.6192 h   0  0  0  0  0  0  0  0  0  0  0  0
   -1.8260    1.5801   -1.7417 h   0  0  0  0  0  0  0  0  0  0  0  0
   -1.3907   -2.0409    1.7291 h   0  0  0  0  0  0  0  0  0  0  0  0
   -3.4845    0.0624    1.6959 h   0  0  0  0  0  0  0  0  0  0  0  0
   -4.3391   -0.1919    0.1718 h   0  0  0  0  0  0  0  0  0  0  0  0
   -3.1918   -1.3948    0.7483 h   0  0  0  0  0  0  0  0  0  0  0  0
  1  2  1  0  0  0  0
  2  3  1  0  0  0  0
  3  4  1  0  0  0  0
  4  5  1  0  0  0  0
  1  6  1  0  0  0  0
  5  6  1  0  0  0  0
  1  7  1  0  0  0  0
  5  8  1  0  0  0  0
  7  8  1  0  0  0  0
  6  9  1  0  0  0  0
  1 10  1  0  0  0  0
  8 11  2  0  0  0  0
  2 12  1  0  0  0  0
 12 13  2  0  0  0  0
  2 14  1  0  0  0  0
 10 15  1  0  0  0  0
 12 16  1  0  0  0  0
  3 17  1  0  0  0  0
  3 18  1  0  0  0  0
  4 19  1  0  0  0  0
  4 20  1  0  0  0  0
  5 21  1  0  0  0  0
  6 22  1  0  0  0  0
  7 23  1  0  0  0  0
  7 24  1  0  0  0  0
  9 25  1  0  0  0  0
 10 26  1  0  0  0  0
 10 27  1  0  0  0  0
 11 28  1  0  0  0  0
 11 29  1  0  0  0  0
 13 30  1  0  0  0  0
 13 31  1  0  0  0  0
 15 32  1  0  0  0  0
 16 33  1  0  0  0  0
 16 34  1  0  0  0  0
 16 35  1  0  0  0  0
M  END
