 xtb: 6.7.1 (edcfbbe)
          08092615283D

 35 36  0     0  0            999 V2000
    0.0909   -0.6490    0.0728 c   0  0  0  0  0  0  0  0  0  0  0  0
   -0.9418    0.3164    0.7126 c   0  0  0  0  0  0  0  0  0  0  0  0
   -0.3381    1.7219    0.8798 c   0  0  0  0  0  0  0  0  0  0  0  0
    0.4919    2.2005   -0.3118 c   0  0  0  0  0  0  0  0  0  0  0  0
    1.4453    1.0934   -0.7728 c   0  0  0  0  0  0  0  0  0  0  0  0
    0.6117   -0.0943   -1.2620 c   0  0  0  0  0  0  0  0  0  0  0  0
    1.3780   -0.6530    0.9201 c   0  0  0  0  0  0  0  0  0  0  0  0
    2.1735    0.5180    0.4154 c   0  0  0  0  0  0  0  0  0  0  0  0
    1.3908   -1.0799   -1.9107 o   0  0  0  0  0  0  0  0  0  0  0  0
   -0.4811   -2.0581   -0.0765 c   0  0  0  0  0  0  0  0  0  0  0  0
    3.3113    0.9685    0.9108 c   0  0  0  0  0  0  0  0  0  0  0  0
   -2.3081    0.3076    0.0548 c   0  0  0  0  0  0  0  0  0  0  0  0
   -3.2427   -0.5135    0.5136 c   0  0  0  0  0  0  0  0  0  0  0  0
   -1.1063   -0.0880    1.7172 h   0  0  0  0  0  0  0  0  0  0  0  0
   -0.8028   -2.5693    1.2010 o   0  0  0  0  0  0  0  0  0  0  0  0
   -2.6292    1.2513   -1.0671 c   0  0  0  0  0  0  0  0  0  0  0  0
   -1.1363    2.4363    1.0906 h   0  0  0  0  0  0  0  0  0  0  0  0
    0.3153    1.7086    1.7540 h   0  0  0  0  0  0  0  0  0  0  0  0
   -0.1457    2.4916   -1.1478 h   0  0  0  0  0  0  0  0  0  0  0  0
    1.0703    3.0773   -0.0121 h   0  0  0  0  0  0  0  0  0  0  0  0
    2.1256    1.4749   -1.5409 h   0  0  0  0  0  0  0  0  0  0  0  0
   -0.1971    0.2158   -1.9354 h   0  0  0  0  0  0  0  0  0  0  0  0
    1.9287   -1.5764    0.7312 h   0  0  0  0  0  0  0  0  0  0  0  0
    1.1725   -0.6024    1.9880 h   0  0  0  0  0  0  0  0  0  0  0  0
    1.9385   -0.6457   -2.5737 h   0  0  0  0  0  0  0  0  0  0  0  0
    0.2726   -2.6858   -0.5677 h   0  0  0  0  0  0  0  0  0  0  0  0
   -1.3746   -2.0249   -0.7152 h   0  0  0  0  0  0  0  0  0  0  0  0
    3.7717    0.5168    1.7730 h   0  0  0  0  0  0  0  0  0  0  0  0
    3.8286    1.8073    0.4755 h   0  0  0  0  0  0  0  0  0  0  0  0
   -4.2299   -0.5530    0.0826 h   0  0  0  0  0  0  0  0  0  0  0  0
   -3.0519   -1.1900    1.3289 h   0  0  0  0  0  0  0  0  0  0  0  0
   -1.1358   -3.4652    1.0935 h   0  0  0  0  0  0  0  0  0  0  0  0
   -2.4416    2.2829   -0.7762 h   0  0  0  0  0  0  0  0  0  0  0  0
   -2.0355    1.0377   -1.9539 h   0  0  0  0  0  0  0  0  0  0  0  0
   -3.6789    1.1606   -1.3374 h   0  0  0  0  0  0  0  0  0  0  0  0
  1  2  1  0  0  0  0
  2  3  1  0  0  0  0
  3  4  1  0  0  0  0
  4  5  1  0  0  0  0
  1  6  1  0  0  0  0
  5  6  1  0  0  0  0
  1  7  1  0  0  0  0
  5  8  1  0  0  0  0
  7  8  1  0  0  0  0
  6  9  1  0  0  0  0
  1 10  1  0  0  0  0
  8 11  2  0  0  0  0
  2 12  1  0  0  0  0
 12 13  2  0  0  0  0
  2 14  1  0  0  0  0
 10 15  1  0  0  0  0
 12 16  1  0  0  0  0
  3 17  1  0  0  0  0
  3 18  1  0  0  0  0
  4 19  1  0  0  0  0
  4 20  1  0  0  0  0
  5 21  1  0  0  0  0
  6 22  1  0  0  0  0
  7 23  1  0  0  0  0
  7 24  1  0  0  0  0
  9 25  1  0  0  0  0
 10 26  1  0  0  0  0
 10 27  1  0  0  0  0
 11 28  1  0  0  0  0
 11 29  1  0  0  0  0
 13 30  1  0  0  0  0
 13 31  1  0  0  0  0
 15 32  1  0  0  0  0
 16 33  1  0  0  0  0
 16 34  1  0  0  0  0
 16 35  1  0  0  0  0
M  END
