 xtb: 6.7.1 (edcfbbe)
          08092615283D

 35 36  0     0  0            999 V2000
   -0.0223   -0.5652    0.3000 c   0  0  0  0  0  0  0  0  0  0  0  0
   -0.9836    0.5787    0.7217 c   0  0  0  0  0  0  0  0  0  0  0  0
   -0.3337    1.9691    0.5497 c   0  0  0  0  0  0  0  0  0  0  0  0
    0.5641    2.1241   -0.6783 c   0  0  0  0  0  0  0  0  0  0  0  0
    1.4591    0.8931   -0.8365 c   0  0  0  0  0  0  0  0  0  0  0  0
    0.5639   -0.3194   -1.1030 c   0  0  0  0  0  0  0  0  0  0  0  0
    1.2488   -0.4847    1.1687 c   0  0  0  0  0  0  0  0  0  0  0  0
    2.1081    0.5441    0.4784 c   0  0  0  0  0  0  0  0  0  0  0  0
    1.3628   -1.3896   -1.5781 o   0  0  0  0  0  0  0  0  0  0  0  0
   -0.7745   -1.9002    0.4303 c   0  0  0  0  0  0  0  0  0  0  0  0
    3.2372    1.0474    0.9421 c   0  0  0  0  0  0  0  0  0  0  0  0
   -2.3797    0.5079    0.1343 c   0  0  0  0  0  0  0  0  0  0  0  0
   -3.3999    0.1845    0.9182 c   0  0  0  0  0  0  0  0  0  0  0  0
   -1.1310    0.4420    1.8002 h   0  0  0  0  0  0  0  0  0  0  0  0
   -0.0040   -3.0530    0.1398 o   0  0  0  0  0  0  0  0  0  0  0  0
   -2.6237    0.8538   -1.3040 c   0  0  0  0  0  0  0  0  0  0  0  0
   -1.1207    2.7258    0.5343 h   0  0  0  0  0  0  0  0  0  0  0  0
    0.2804    2.1617    1.4314 h   0  0  0  0  0  0  0  0  0  0  0  0
   -0.0208    2.2517   -1.5901 h   0  0  0  0  0  0  0  0  0  0  0  0
    1.1825    3.0147   -0.5522 h   0  0  0  0  0  0  0  0  0  0  0  0
    2.1871    1.0352   -1.6367 h   0  0  0  0  0  0  0  0  0  0  0  0
   -0.2063   -0.1041   -1.8515 h   0  0  0  0  0  0  0  0  0  0  0  0
    1.7833   -1.4386    1.1600 h   0  0  0  0  0  0  0  0  0  0  0  0
    1.0368   -0.2258    2.2062 h   0  0  0  0  0  0  0  0  0  0  0  0
    0.9300   -2.2188   -1.3144 h   0  0  0  0  0  0  0  0  0  0  0  0
   -1.5988   -1.9246   -0.2864 h   0  0  0  0  0  0  0  0  0  0  0  0
   -1.1994   -1.9786    1.4386 h   0  0  0  0  0  0  0  0  0  0  0  0
    3.6383    0.7589    1.8997 h   0  0  0  0  0  0  0  0  0  0  0  0
    3.8078    1.7674    0.3806 h   0  0  0  0  0  0  0  0  0  0  0  0
   -4.4113    0.1477    0.5488 h   0  0  0  0  0  0  0  0  0  0  0  0
   -3.2737   -0.0618    1.9594 h   0  0  0  0  0  0  0  0  0  0  0  0
    0.6684   -3.1584    0.8256 h   0  0  0  0  0  0  0  0  0  0  0  0
   -2.1289    1.7827   -1.5736 h   0  0  0  0  0  0  0  0  0  0  0  0
   -2.2553    0.0682   -1.9622 h   0  0  0  0  0  0  0  0  0  0  0  0
   -3.6906    0.9654   -1.4842 h   0  0  0  0  0  0  0  0  0  0  0  0
  1  2  1  0  0  0  0
  2  3  1  0  0  0  0
  3  4  1  0  0  0  0
  4  5  1  0  0  0  0
  1  6  1  0  0  0  0
  5  6  1  0  0  0  0
  1  7  1  0  0  0  0
  5  8  1  0  0  0  0
  7  8  1  0  0  0  0
  6  9  1  0  0  0  0
  1 10  1  0  0  0  0
  8 11  2  0  0  0  0
  2 12  1  0  0  0  0
 12 13  2  0  0  0  0
  2 14  1  0  0  0  0
 10 15  1  0  0  0  0
 12 16  1  0  0  0  0
  3 17  1  0  0  0  0
  3 18  1  0  0  0  0
  4 19  1  0  0  0  0
  4 20  1  0  0  0  0
  5 21  1  0  0  0  0
  6 22  1  0  0  0  0
  7 23  1  0  0  0  0
  7 24  1  0  0  0  0
  9 25  1  0  0  0  0
 10 26  1  0  0  0  0
 10 27  1  0  0  0  0
 11 28  1  0  0  0  0
 11 29  1  0  0  0  0
 13 30  1  0  0  0  0
 13 31  1  0  0  0  0
 15 32  1  0  0  0  0
 16 33  1  0  0  0  0
 16 34  1  0  0  0  0
 16 35  1  0  0  0  0
M  END
