 xtb: 6.7.1 (edcfbbe)
          08092616283D

 35 36  0     0  0            999 V2000
    0.1356   -0.5916    0.4256 c   0  0  0  0  0  0  0  0  0  0  0  0
   -0.9111    0.5005    0.7795 c   0  0  0  0  0  0  0  0  0  0  0  0
   -0.3305    1.9119    0.5590 c   0  0  0  0  0  0  0  0  0  0  0  0
    0.5344    2.0675   -0.6930 c   0  0  0  0  0  0  0  0  0  0  0  0
    1.5079    0.8903   -0.8156 c   0  0  0  0  0  0  0  0  0  0  0  0
    0.6834   -0.3825   -1.0011 c   0  0  0  0  0  0  0  0  0  0  0  0
    1.4019   -0.3612    1.2743 c   0  0  0  0  0  0  0  0  0  0  0  0
    2.2028    0.6529    0.4996 c   0  0  0  0  0  0  0  0  0  0  0  0
    1.5247   -1.4385   -1.4275 o   0  0  0  0  0  0  0  0  0  0  0  0
   -0.4295   -2.0072    0.6277 c   0  0  0  0  0  0  0  0  0  0  0  0
    3.3198    1.2321    0.8998 c   0  0  0  0  0  0  0  0  0  0  0  0
   -2.2793    0.2986    0.1555 c   0  0  0  0  0  0  0  0  0  0  0  0
   -3.2358   -0.2995    0.8591 c   0  0  0  0  0  0  0  0  0  0  0  0
   -1.0749    0.3972    1.8597 h   0  0  0  0  0  0  0  0  0  0  0  0
   -1.2284   -2.4534   -0.4505 o   0  0  0  0  0  0  0  0  0  0  0  0
   -2.5814    0.8191   -1.2189 c   0  0  0  0  0  0  0  0  0  0  0  0
   -1.1464    2.6370    0.5431 h   0  0  0  0  0  0  0  0  0  0  0  0
    0.2929    2.1533    1.4217 h   0  0  0  0  0  0  0  0  0  0  0  0
   -0.0753    2.1166   -1.5957 h   0  0  0  0  0  0  0  0  0  0  0  0
    1.0972    2.9998   -0.6179 h   0  0  0  0  0  0  0  0  0  0  0  0
    2.2075    1.0417   -1.6389 h   0  0  0  0  0  0  0  0  0  0  0  0
   -0.1103   -0.2479   -1.7425 h   0  0  0  0  0  0  0  0  0  0  0  0
    1.9761   -1.2877    1.3454 h   0  0  0  0  0  0  0  0  0  0  0  0
    1.1758   -0.0305    2.2878 h   0  0  0  0  0  0  0  0  0  0  0  0
    0.9773   -2.2314   -1.4977 h   0  0  0  0  0  0  0  0  0  0  0  0
   -0.9938   -2.0526    1.5673 h   0  0  0  0  0  0  0  0  0  0  0  0
    0.3906   -2.7277    0.6923 h   0  0  0  0  0  0  0  0  0  0  0  0
    3.7547    1.0223    1.8628 h   0  0  0  0  0  0  0  0  0  0  0  0
    3.8469    1.9358    0.2781 h   0  0  0  0  0  0  0  0  0  0  0  0
   -4.2247   -0.4543    0.4590 h   0  0  0  0  0  0  0  0  0  0  0  0
   -3.0782   -0.6572    1.8633 h   0  0  0  0  0  0  0  0  0  0  0  0
   -2.0276   -1.9051   -0.4720 h   0  0  0  0  0  0  0  0  0  0  0  0
   -2.3541    1.8804   -1.2859 h   0  0  0  0  0  0  0  0  0  0  0  0
   -2.0019    0.3040   -1.9824 h   0  0  0  0  0  0  0  0  0  0  0  0
   -3.6363    0.6805   -1.4462 h   0  0  0  0  0  0  0  0  0  0  0  0
  1  2  1  0  0  0  0
  2  3  1  0  0  0  0
  3  4  1  0  0  0  0
  4  5  1  0  0  0  0
  1  6  1  0  0  0  0
  5  6  1  0  0  0  0
  1  7  1  0  0  0  0
  5  8  1  0  0  0  0
  7  8  1  0  0  0  0
  6  9  1  0  0  0  0
  1 10  1  0  0  0  0
  8 11  2  0  0  0  0
  2 12  1  0  0  0  0
 12 13  2  0  0  0  0
  2 14  1  0  0  0  0
 10 15  1  0  0  0  0
 12 16  1  0  0  0  0
  3 17  1  0  0  0  0
  3 18  1  0  0  0  0
  4 19  1  0  0  0  0
  4 20  1  0  0  0  0
  5 21  1  0  0  0  0
  6 22  1  0  0  0  0
  7 23  1  0  0  0  0
  7 24  1  0  0  0  0
  9 25  1  0  0  0  0
 10 26  1  0  0  0  0
 10 27  1  0  0  0  0
 11 28  1  0  0  0  0
 11 29  1  0  0  0  0
 13 30  1  0  0  0  0
 13 31  1  0  0  0  0
 15 32  1  0  0  0  0
 16 33  1  0  0  0  0
 16 34  1  0  0  0  0
 16 35  1  0  0  0  0
M  END
