 xtb: 6.7.1 (edcfbbe)
          08092618423D

 35 36  0     0  0            999 V2000
    0.0094   -0.7572   -0.0443 c   0  0  0  0  0  0  0  0  0  0  0  0
    0.6257    0.4765   -0.7666 c   0  0  0  0  0  0  0  0  0  0  0  0
   -0.4225    1.6022   -0.8944 c   0  0  0  0  0  0  0  0  0  0  0  0
   -1.3032    1.8112    0.3389 c   0  0  0  0  0  0  0  0  0  0  0  0
   -1.8101    0.4693    0.8751 c   0  0  0  0  0  0  0  0  0  0  0  0
   -0.6130   -0.3907    1.3190 c   0  0  0  0  0  0  0  0  0  0  0  0
   -1.2520   -1.2026   -0.8132 c   0  0  0  0  0  0  0  0  0  0  0  0
   -2.3684   -0.3543   -0.2540 c   0  0  0  0  0  0  0  0  0  0  0  0
    0.2438    0.1589    2.2805 o   0  0  0  0  0  0  0  0  0  0  0  0
    1.0072   -1.9090    0.1248 c   0  0  0  0  0  0  0  0  0  0  0  0
   -3.6165   -0.3378   -0.6851 c   0  0  0  0  0  0  0  0  0  0  0  0
    1.9599    0.9661   -0.2315 c   0  0  0  0  0  0  0  0  0  0  0  0
    2.1154    1.9737    0.6191 c   0  0  0  0  0  0  0  0  0  0  0  0
    0.8478    0.1314   -1.7847 h   0  0  0  0  0  0  0  0  0  0  0  0
    1.5403   -2.3907   -1.0920 o   0  0  0  0  0  0  0  0  0  0  0  0
    3.1706    0.3326   -0.8574 c   0  0  0  0  0  0  0  0  0  0  0  0
    0.0896    2.5334   -1.1439 h   0  0  0  0  0  0  0  0  0  0  0  0
   -1.0811    1.3627   -1.7315 h   0  0  0  0  0  0  0  0  0  0  0  0
   -0.7704    2.3273    1.1387 h   0  0  0  0  0  0  0  0  0  0  0  0
   -2.1558    2.4344    0.0606 h   0  0  0  0  0  0  0  0  0  0  0  0
   -2.5272    0.6318    1.6819 h   0  0  0  0  0  0  0  0  0  0  0  0
   -0.9973   -1.3064    1.7892 h   0  0  0  0  0  0  0  0  0  0  0  0
   -1.1560   -1.0837   -1.8930 h   0  0  0  0  0  0  0  0  0  0  0  0
   -1.4645   -2.2560   -0.6076 h   0  0  0  0  0  0  0  0  0  0  0  0
    0.7936    0.8304    1.8477 h   0  0  0  0  0  0  0  0  0  0  0  0
    0.5101   -2.7278    0.6645 h   0  0  0  0  0  0  0  0  0  0  0  0
    1.8586   -1.5847    0.7266 h   0  0  0  0  0  0  0  0  0  0  0  0
   -3.9404   -0.9469   -1.5127 h   0  0  0  0  0  0  0  0  0  0  0  0
   -4.3651    0.2860   -0.2272 h   0  0  0  0  0  0  0  0  0  0  0  0
    3.1009    2.2930    0.9172 h   0  0  0  0  0  0  0  0  0  0  0  0
    1.3076    2.5548    1.0287 h   0  0  0  0  0  0  0  0  0  0  0  0
    0.8082   -2.7061   -1.6370 h   0  0  0  0  0  0  0  0  0  0  0  0
    3.0299   -0.7279   -1.0399 h   0  0  0  0  0  0  0  0  0  0  0  0
    3.3531    0.8070   -1.8235 h   0  0  0  0  0  0  0  0  0  0  0  0
    4.0528    0.4777   -0.2388 h   0  0  0  0  0  0  0  0  0  0  0  0
  1  2  1  0  0  0  0
  2  3  1  0  0  0  0
  3  4  1  0  0  0  0
  4  5  1  0  0  0  0
  1  6  1  0  0  0  0
  5  6  1  0  0  0  0
  1  7  1  0  0  0  0
  5  8  1  0  0  0  0
  7  8  1  0  0  0  0
  6  9  1  0  0  0  0
  1 10  1  0  0  0  0
  8 11  2  0  0  0  0
  2 12  1  0  0  0  0
 12 13  2  0  0  0  0
  2 14  1  0  0  0  0
 10 15  1  0  0  0  0
 12 16  1  0  0  0  0
  3 17  1  0  0  0  0
  3 18  1  0  0  0  0
  4 19  1  0  0  0  0
  4 20  1  0  0  0  0
  5 21  1  0  0  0  0
  6 22  1  0  0  0  0
  7 23  1  0  0  0  0
  7 24  1  0  0  0  0
  9 25  1  0  0  0  0
 10 26  1  0  0  0  0
 10 27  1  0  0  0  0
 11 28  1  0  0  0  0
 11 29  1  0  0  0  0
 13 30  1  0  0  0  0
 13 31  1  0  0  0  0
 15 32  1  0  0  0  0
 16 33  1  0  0  0  0
 16 34  1  0  0  0  0
 16 35  1  0  0  0  0
M  END
