 xtb: 6.7.1 (edcfbbe)
          08092616283D

 35 36  0     0  0            999 V2000
   -0.0233   -0.5513    0.2806 c   0  0  0  0  0  0  0  0  0  0  0  0
   -1.0152    0.5741    0.6821 c   0  0  0  0  0  0  0  0  0  0  0  0
   -0.3321    1.9570    0.6184 c   0  0  0  0  0  0  0  0  0  0  0  0
    0.6065    2.1692   -0.5701 c   0  0  0  0  0  0  0  0  0  0  0  0
    1.4764    0.9301   -0.7959 c   0  0  0  0  0  0  0  0  0  0  0  0
    0.5568   -0.2575   -1.1128 c   0  0  0  0  0  0  0  0  0  0  0  0
    1.2270   -0.4770    1.1787 c   0  0  0  0  0  0  0  0  0  0  0  0
    2.1284    0.5176    0.4980 c   0  0  0  0  0  0  0  0  0  0  0  0
    1.2880   -1.3267   -1.6887 o   0  0  0  0  0  0  0  0  0  0  0  0
   -0.7173   -1.9155    0.3787 c   0  0  0  0  0  0  0  0  0  0  0  0
    3.2892    0.9529    0.9526 c   0  0  0  0  0  0  0  0  0  0  0  0
   -2.3443    0.5331   -0.0484 c   0  0  0  0  0  0  0  0  0  0  0  0
   -2.5609    1.0013   -1.2686 c   0  0  0  0  0  0  0  0  0  0  0  0
   -1.2528    0.3964    1.7379 h   0  0  0  0  0  0  0  0  0  0  0  0
    0.2309   -2.9674    0.2393 o   0  0  0  0  0  0  0  0  0  0  0  0
   -3.4903   -0.0061    0.7626 c   0  0  0  0  0  0  0  0  0  0  0  0
   -1.1043    2.7286    0.6157 h   0  0  0  0  0  0  0  0  0  0  0  0
    0.2548    2.0845    1.5299 h   0  0  0  0  0  0  0  0  0  0  0  0
    0.0483    2.3832   -1.4819 h   0  0  0  0  0  0  0  0  0  0  0  0
    1.2452    3.0306   -0.3652 h   0  0  0  0  0  0  0  0  0  0  0  0
    2.1998    1.1010   -1.5951 h   0  0  0  0  0  0  0  0  0  0  0  0
   -0.2247    0.0081   -1.8323 h   0  0  0  0  0  0  0  0  0  0  0  0
    1.7140   -1.4543    1.2138 h   0  0  0  0  0  0  0  0  0  0  0  0
    0.9873   -0.1904    2.2029 h   0  0  0  0  0  0  0  0  0  0  0  0
    1.2400   -2.0812   -1.0818 h   0  0  0  0  0  0  0  0  0  0  0  0
   -1.4776   -1.9881   -0.4083 h   0  0  0  0  0  0  0  0  0  0  0  0
   -1.2034   -2.0030    1.3593 h   0  0  0  0  0  0  0  0  0  0  0  0
    3.6902    0.6218    1.8963 h   0  0  0  0  0  0  0  0  0  0  0  0
    3.8869    1.6557    0.3971 h   0  0  0  0  0  0  0  0  0  0  0  0
   -3.5429    0.9597   -1.7119 h   0  0  0  0  0  0  0  0  0  0  0  0
   -1.7992    1.4481   -1.8795 h   0  0  0  0  0  0  0  0  0  0  0  0
   -0.2424   -3.8048    0.1753 h   0  0  0  0  0  0  0  0  0  0  0  0
   -4.3959   -0.0680    0.1647 h   0  0  0  0  0  0  0  0  0  0  0  0
   -3.2661   -0.9929    1.1608 h   0  0  0  0  0  0  0  0  0  0  0  0
   -3.6807    0.6561    1.6077 h   0  0  0  0  0  0  0  0  0  0  0  0
  1  2  1  0  0  0  0
  2  3  1  0  0  0  0
  3  4  1  0  0  0  0
  4  5  1  0  0  0  0
  1  6  1  0  0  0  0
  5  6  1  0  0  0  0
  1  7  1  0  0  0  0
  5  8  1  0  0  0  0
  7  8  1  0  0  0  0
  6  9  1  0  0  0  0
  1 10  1  0  0  0  0
  8 11  2  0  0  0  0
  2 12  1  0  0  0  0
 12 13  2  0  0  0  0
  2 14  1  0  0  0  0
 10 15  1  0  0  0  0
 12 16  1  0  0  0  0
  3 17  1  0  0  0  0
  3 18  1  0  0  0  0
  4 19  1  0  0  0  0
  4 20  1  0  0  0  0
  5 21  1  0  0  0  0
  6 22  1  0  0  0  0
  7 23  1  0  0  0  0
  7 24  1  0  0  0  0
  9 25  1  0  0  0  0
 10 26  1  0  0  0  0
 10 27  1  0  0  0  0
 11 28  1  0  0  0  0
 11 29  1  0  0  0  0
 13 30  1  0  0  0  0
 13 31  1  0  0  0  0
 15 32  1  0  0  0  0
 16 33  1  0  0  0  0
 16 34  1  0  0  0  0
 16 35  1  0  0  0  0
M  END
