 xtb: 6.7.1 (edcfbbe)
          08092622443D

 50 55  0     0  0            999 V2000
   -0.4140    0.0853   -2.5180 c   0  0  0  0  0  0  0  0  0  0  0  0
    1.1083    0.0780   -2.6131 c   0  0  0  0  0  0  0  0  0  0  0  0
   -2.6059    3.1606    0.6601 c   0  0  0  0  0  0  0  0  0  0  0  0
   -3.7523    2.5600    0.1644 c   0  0  0  0  0  0  0  0  0  0  0  0
   -3.6683    1.3110   -0.4113 c   0  0  0  0  0  0  0  0  0  0  0  0
   -2.4491    0.6342   -0.4759 c   0  0  0  0  0  0  0  0  0  0  0  0
   -1.3090    1.1788    0.1360 c   0  0  0  0  0  0  0  0  0  0  0  0
   -1.4121    2.4631    0.6610 c   0  0  0  0  0  0  0  0  0  0  0  0
   -2.3560   -0.5058   -1.2534 n   0  0  0  0  0  0  0  0  0  0  0  0
   -1.0203   -0.9492   -1.5474 c   0  0  0  0  0  0  0  0  0  0  0  0
   -0.1646   -1.0758   -0.2553 c   0  0  0  0  0  0  0  0  0  0  0  0
   -0.0677    0.3348    0.3894 c   0  0  0  0  0  0  0  0  0  0  0  0
    1.2546   -1.4618   -0.6909 c   0  0  0  0  0  0  0  0  0  0  0  0
    1.7698   -0.1229   -1.2430 c   0  0  0  0  0  0  0  0  0  0  0  0
    1.2651    0.8479   -0.1832 c   0  0  0  0  0  0  0  0  0  0  0  0
    3.2547    0.0650   -1.3881 c   0  0  0  0  0  0  0  0  0  0  0  0
    3.9592    0.9217   -0.6616 c   0  0  0  0  0  0  0  0  0  0  0  0
    3.3939    1.6453    0.5325 c   0  0  0  0  0  0  0  0  0  0  0  0
    2.2426    0.8362    0.9743 n   0  0  0  0  0  0  0  0  0  0  0  0
    1.3943    1.3077    2.0830 c   0  0  0  0  0  0  0  0  0  0  0  0
    0.1994    0.3640    1.9220 c   0  0  0  0  0  0  0  0  0  0  0  0
    2.7280   -0.3706    1.3463 o   0  0  0  0  0  0  0  0  0  0  0  0
    1.2020    1.8758   -0.5409 h   0  0  0  0  0  0  0  0  0  0  0  0
   -0.8389   -2.0864    0.6343 c   0  0  0  0  0  0  0  0  0  0  0  0
   -1.8239   -1.8629    1.3080 o   0  0  0  0  0  0  0  0  0  0  0  0
   -0.2757   -3.2883    0.5523 o   0  0  0  0  0  0  0  0  0  0  0  0
   -0.8560   -4.3322    1.3337 c   0  0  0  0  0  0  0  0  0  0  0  0
   -0.8455   -0.0878   -3.5051 h   0  0  0  0  0  0  0  0  0  0  0  0
   -0.7429    1.0721   -2.1928 h   0  0  0  0  0  0  0  0  0  0  0  0
    1.4435   -0.7344   -3.2605 h   0  0  0  0  0  0  0  0  0  0  0  0
    1.4408    1.0176   -3.0594 h   0  0  0  0  0  0  0  0  0  0  0  0
   -2.6459    4.1584    1.0704 h   0  0  0  0  0  0  0  0  0  0  0  0
   -4.7006    3.0750    0.2062 h   0  0  0  0  0  0  0  0  0  0  0  0
   -4.5418    0.8411   -0.8385 h   0  0  0  0  0  0  0  0  0  0  0  0
   -0.5469    2.9376    1.0952 h   0  0  0  0  0  0  0  0  0  0  0  0
   -3.0710   -1.2026   -1.1188 h   0  0  0  0  0  0  0  0  0  0  0  0
   -1.0696   -1.9312   -2.0268 h   0  0  0  0  0  0  0  0  0  0  0  0
    1.8567   -1.7651    0.1647 h   0  0  0  0  0  0  0  0  0  0  0  0
    1.2505   -2.2556   -1.4348 h   0  0  0  0  0  0  0  0  0  0  0  0
    3.7272   -0.4942   -2.1820 h   0  0  0  0  0  0  0  0  0  0  0  0
    5.0139    1.0650   -0.8411 h   0  0  0  0  0  0  0  0  0  0  0  0
    3.0943    2.6726    0.3057 h   0  0  0  0  0  0  0  0  0  0  0  0
    4.1278    1.6459    1.3411 h   0  0  0  0  0  0  0  0  0  0  0  0
    1.9246    1.1517    3.0213 h   0  0  0  0  0  0  0  0  0  0  0  0
    1.1380    2.3584    1.9576 h   0  0  0  0  0  0  0  0  0  0  0  0
   -0.6739    0.6817    2.4863 h   0  0  0  0  0  0  0  0  0  0  0  0
    0.5083   -0.6224    2.2692 h   0  0  0  0  0  0  0  0  0  0  0  0
   -1.9156   -4.4384    1.0936 h   0  0  0  0  0  0  0  0  0  0  0  0
   -0.3055   -5.2333    1.0788 h   0  0  0  0  0  0  0  0  0  0  0  0
   -0.7553   -4.1052    2.3963 h   0  0  0  0  0  0  0  0  0  0  0  0
  1  2  1  0  0  0  0
  3  4  4  0  0  0  0
  4  5  4  0  0  0  0
  5  6  4  0  0  0  0
  6  7  4  0  0  0  0
  3  8  4  0  0  0  0
  7  8  4  0  0  0  0
  6  9  1  0  0  0  0
  1 10  1  0  0  0  0
  9 10  1  0  0  0  0
 10 11  1  0  0  0  0
  7 12  1  0  0  0  0
 11 12  1  0  0  0  0
 11 13  1  0  0  0  0
  2 14  1  0  0  0  0
 13 14  1  0  0  0  0
 12 15  1  0  0  0  0
 14 15  1  0  0  0  0
 14 16  1  0  0  0  0
 16 17  2  0  0  0  0
 17 18  1  0  0  0  0
 15 19  1  0  0  0  0
 18 19  1  0  0  0  0
 19 20  1  0  0  0  0
 12 21  1  0  0  0  0
 20 21  1  0  0  0  0
 19 22  1  0  0  0  0
 15 23  1  0  0  0  0
 11 24  1  0  0  0  0
 24 25  2  0  0  0  0
 24 26  1  0  0  0  0
 26 27  1  0  0  0  0
  1 28  1  0  0  0  0
  1 29  1  0  0  0  0
  2 30  1  0  0  0  0
  2 31  1  0  0  0  0
  3 32  1  0  0  0  0
  4 33  1  0  0  0  0
  5 34  1  0  0  0  0
  8 35  1  0  0  0  0
  9 36  1  0  0  0  0
 10 37  1  0  0  0  0
 13 38  1  0  0  0  0
 13 39  1  0  0  0  0
 16 40  1  0  0  0  0
 17 41  1  0  0  0  0
 18 42  1  0  0  0  0
 18 43  1  0  0  0  0
 20 44  1  0  0  0  0
 20 45  1  0  0  0  0
 21 46  1  0  0  0  0
 21 47  1  0  0  0  0
 27 48  1  0  0  0  0
 27 49  1  0  0  0  0
 27 50  1  0  0  0  0
M  END
