 xtb: 6.7.1 (edcfbbe)
          08092615283D

 35 36  0     0  0            999 V2000
    0.1445   -0.5968    0.3836 c   0  0  0  0  0  0  0  0  0  0  0  0
   -0.9162    0.4870    0.7196 c   0  0  0  0  0  0  0  0  0  0  0  0
   -0.3380    1.9079    0.5444 c   0  0  0  0  0  0  0  0  0  0  0  0
    0.5663    2.0933   -0.6733 c   0  0  0  0  0  0  0  0  0  0  0  0
    1.5307    0.9130   -0.8105 c   0  0  0  0  0  0  0  0  0  0  0  0
    0.7210   -0.3718   -1.0318 c   0  0  0  0  0  0  0  0  0  0  0  0
    1.3822   -0.3530    1.2723 c   0  0  0  0  0  0  0  0  0  0  0  0
    2.2103    0.6513    0.5095 c   0  0  0  0  0  0  0  0  0  0  0  0
    1.5167   -1.4293   -1.4987 o   0  0  0  0  0  0  0  0  0  0  0  0
   -0.4111   -2.0153    0.5836 c   0  0  0  0  0  0  0  0  0  0  0  0
    3.3379    1.1999    0.9223 c   0  0  0  0  0  0  0  0  0  0  0  0
   -2.2540    0.3207    0.0260 c   0  0  0  0  0  0  0  0  0  0  0  0
   -2.5083    0.6459   -1.2343 c   0  0  0  0  0  0  0  0  0  0  0  0
   -1.1243    0.3697    1.7913 h   0  0  0  0  0  0  0  0  0  0  0  0
   -1.3198   -2.4430   -0.3929 o   0  0  0  0  0  0  0  0  0  0  0  0
   -3.3598   -0.1741    0.9189 c   0  0  0  0  0  0  0  0  0  0  0  0
   -1.1647    2.6196    0.4976 h   0  0  0  0  0  0  0  0  0  0  0  0
    0.2481    2.1484    1.4339 h   0  0  0  0  0  0  0  0  0  0  0  0
   -0.0191    2.1854   -1.5885 h   0  0  0  0  0  0  0  0  0  0  0  0
    1.1341    3.0183   -0.5518 h   0  0  0  0  0  0  0  0  0  0  0  0
    2.2404    1.0925   -1.6211 h   0  0  0  0  0  0  0  0  0  0  0  0
   -0.0579   -0.2656   -1.7866 h   0  0  0  0  0  0  0  0  0  0  0  0
    1.9444   -1.2809    1.4131 h   0  0  0  0  0  0  0  0  0  0  0  0
    1.1161    0.0082    2.2665 h   0  0  0  0  0  0  0  0  0  0  0  0
    2.2576   -1.5488   -0.8940 h   0  0  0  0  0  0  0  0  0  0  0  0
   -0.8615   -2.0790    1.5897 h   0  0  0  0  0  0  0  0  0  0  0  0
    0.4080   -2.7387    0.5387 h   0  0  0  0  0  0  0  0  0  0  0  0
    3.7611    0.9731    1.8866 h   0  0  0  0  0  0  0  0  0  0  0  0
    3.8816    1.9015    0.3130 h   0  0  0  0  0  0  0  0  0  0  0  0
   -3.4956    0.5240   -1.6494 h   0  0  0  0  0  0  0  0  0  0  0  0
   -1.7721    1.0466   -1.9052 h   0  0  0  0  0  0  0  0  0  0  0  0
   -1.9569   -1.7374   -0.5625 h   0  0  0  0  0  0  0  0  0  0  0  0
   -4.2739   -0.3450    0.3556 h   0  0  0  0  0  0  0  0  0  0  0  0
   -3.0825   -1.0981    1.4239 h   0  0  0  0  0  0  0  0  0  0  0  0
   -3.5658    0.5703    1.6890 h   0  0  0  0  0  0  0  0  0  0  0  0
  1  2  1  0  0  0  0
  2  3  1  0  0  0  0
  3  4  1  0  0  0  0
  4  5  1  0  0  0  0
  1  6  1  0  0  0  0
  5  6  1  0  0  0  0
  1  7  1  0  0  0  0
  5  8  1  0  0  0  0
  7  8  1  0  0  0  0
  6  9  1  0  0  0  0
  1 10  1  0  0  0  0
  8 11  2  0  0  0  0
  2 12  1  0  0  0  0
 12 13  2  0  0  0  0
  2 14  1  0  0  0  0
 10 15  1  0  0  0  0
 12 16  1  0  0  0  0
  3 17  1  0  0  0  0
  3 18  1  0  0  0  0
  4 19  1  0  0  0  0
  4 20  1  0  0  0  0
  5 21  1  0  0  0  0
  6 22  1  0  0  0  0
  7 23  1  0  0  0  0
  7 24  1  0  0  0  0
  9 25  1  0  0  0  0
 10 26  1  0  0  0  0
 10 27  1  0  0  0  0
 11 28  1  0  0  0  0
 11 29  1  0  0  0  0
 13 30  1  0  0  0  0
 13 31  1  0  0  0  0
 15 32  1  0  0  0  0
 16 33  1  0  0  0  0
 16 34  1  0  0  0  0
 16 35  1  0  0  0  0
M  END
