 xtb: 6.7.1 (edcfbbe)
          08092618203D

 35 36  0     0  0            999 V2000
    0.0454   -0.7684   -0.0335 c   0  0  0  0  0  0  0  0  0  0  0  0
    0.6475    0.4368   -0.8157 c   0  0  0  0  0  0  0  0  0  0  0  0
   -0.4092    1.5469   -0.9746 c   0  0  0  0  0  0  0  0  0  0  0  0
   -1.2504    1.8023    0.2747 c   0  0  0  0  0  0  0  0  0  0  0  0
   -1.7745    0.4803    0.8468 c   0  0  0  0  0  0  0  0  0  0  0  0
   -0.5883   -0.3666    1.3167 c   0  0  0  0  0  0  0  0  0  0  0  0
   -1.2186   -1.2524   -0.7750 c   0  0  0  0  0  0  0  0  0  0  0  0
   -2.3339   -0.3810   -0.2549 c   0  0  0  0  0  0  0  0  0  0  0  0
    0.2235    0.3035    2.2502 o   0  0  0  0  0  0  0  0  0  0  0  0
    1.0572   -1.9092    0.1444 c   0  0  0  0  0  0  0  0  0  0  0  0
   -3.5799   -0.3707   -0.6920 c   0  0  0  0  0  0  0  0  0  0  0  0
    1.9929    0.9412   -0.3228 c   0  0  0  0  0  0  0  0  0  0  0  0
    3.1138    0.4120   -0.7987 c   0  0  0  0  0  0  0  0  0  0  0  0
    0.8407    0.0515   -1.8264 h   0  0  0  0  0  0  0  0  0  0  0  0
    1.3495   -2.5988   -1.0517 o   0  0  0  0  0  0  0  0  0  0  0  0
    2.0647    2.0865    0.6408 c   0  0  0  0  0  0  0  0  0  0  0  0
    0.0807    2.4692   -1.2897 h   0  0  0  0  0  0  0  0  0  0  0  0
   -1.0881    1.2568   -1.7792 h   0  0  0  0  0  0  0  0  0  0  0  0
   -0.6718    2.3043    1.0482 h   0  0  0  0  0  0  0  0  0  0  0  0
   -2.0941    2.4421    0.0092 h   0  0  0  0  0  0  0  0  0  0  0  0
   -2.4889    0.6739    1.6485 h   0  0  0  0  0  0  0  0  0  0  0  0
   -0.9797   -1.2849    1.7869 h   0  0  0  0  0  0  0  0  0  0  0  0
   -1.1196   -1.1956   -1.8587 h   0  0  0  0  0  0  0  0  0  0  0  0
   -1.4125   -2.2988   -0.5252 h   0  0  0  0  0  0  0  0  0  0  0  0
    0.9392   -0.2872    2.5123 h   0  0  0  0  0  0  0  0  0  0  0  0
    0.6372   -2.6704    0.8091 h   0  0  0  0  0  0  0  0  0  0  0  0
    1.9839   -1.5254    0.5937 h   0  0  0  0  0  0  0  0  0  0  0  0
   -3.9027   -1.0073   -1.4990 h   0  0  0  0  0  0  0  0  0  0  0  0
   -4.3262    0.2745   -0.2605 h   0  0  0  0  0  0  0  0  0  0  0  0
    4.0825    0.7555   -0.4746 h   0  0  0  0  0  0  0  0  0  0  0  0
    3.1294   -0.3779   -1.5326 h   0  0  0  0  0  0  0  0  0  0  0  0
    1.7281   -1.9665   -1.6760 h   0  0  0  0  0  0  0  0  0  0  0  0
    1.4666    1.8911    1.5253 h   0  0  0  0  0  0  0  0  0  0  0  0
    3.0954    2.2594    0.9418 h   0  0  0  0  0  0  0  0  0  0  0  0
    1.6912    2.9970    0.1748 h   0  0  0  0  0  0  0  0  0  0  0  0
  1  2  1  0  0  0  0
  2  3  1  0  0  0  0
  3  4  1  0  0  0  0
  4  5  1  0  0  0  0
  1  6  1  0  0  0  0
  5  6  1  0  0  0  0
  1  7  1  0  0  0  0
  5  8  1  0  0  0  0
  7  8  1  0  0  0  0
  6  9  1  0  0  0  0
  1 10  1  0  0  0  0
  8 11  2  0  0  0  0
  2 12  1  0  0  0  0
 12 13  2  0  0  0  0
  2 14  1  0  0  0  0
 10 15  1  0  0  0  0
 12 16  1  0  0  0  0
  3 17  1  0  0  0  0
  3 18  1  0  0  0  0
  4 19  1  0  0  0  0
  4 20  1  0  0  0  0
  5 21  1  0  0  0  0
  6 22  1  0  0  0  0
  7 23  1  0  0  0  0
  7 24  1  0  0  0  0
  9 25  1  0  0  0  0
 10 26  1  0  0  0  0
 10 27  1  0  0  0  0
 11 28  1  0  0  0  0
 11 29  1  0  0  0  0
 13 30  1  0  0  0  0
 13 31  1  0  0  0  0
 15 32  1  0  0  0  0
 16 33  1  0  0  0  0
 16 34  1  0  0  0  0
 16 35  1  0  0  0  0
M  END
