 xtb: 6.7.1 (edcfbbe)
          08092615283D

 35 36  0     0  0            999 V2000
    0.0923   -0.6175    0.0947 c   0  0  0  0  0  0  0  0  0  0  0  0
   -0.9352    0.3995    0.6539 c   0  0  0  0  0  0  0  0  0  0  0  0
   -0.3217    1.8114    0.7448 c   0  0  0  0  0  0  0  0  0  0  0  0
    0.5751    2.2080   -0.4286 c   0  0  0  0  0  0  0  0  0  0  0  0
    1.5011    1.0508   -0.8150 c   0  0  0  0  0  0  0  0  0  0  0  0
    0.6367   -0.1328   -1.2576 c   0  0  0  0  0  0  0  0  0  0  0  0
    1.3608   -0.6029    0.9685 c   0  0  0  0  0  0  0  0  0  0  0  0
    2.1964    0.5167    0.4118 c   0  0  0  0  0  0  0  0  0  0  0  0
    1.3965   -1.1677   -1.8640 o   0  0  0  0  0  0  0  0  0  0  0  0
   -0.5038   -2.0212   -0.0185 c   0  0  0  0  0  0  0  0  0  0  0  0
    3.3435    0.9547    0.8982 c   0  0  0  0  0  0  0  0  0  0  0  0
   -2.2767    0.3673   -0.0503 c   0  0  0  0  0  0  0  0  0  0  0  0
   -2.5572    0.9699   -1.1963 c   0  0  0  0  0  0  0  0  0  0  0  0
   -1.1320    0.0712    1.6801 h   0  0  0  0  0  0  0  0  0  0  0  0
   -0.9038   -2.4812    1.2618 o   0  0  0  0  0  0  0  0  0  0  0  0
   -3.3505   -0.3633    0.7047 c   0  0  0  0  0  0  0  0  0  0  0  0
   -1.1291    2.5389    0.8478 h   0  0  0  0  0  0  0  0  0  0  0  0
    0.2805    1.8593    1.6539 h   0  0  0  0  0  0  0  0  0  0  0  0
   -0.0178    2.4956   -1.2977 h   0  0  0  0  0  0  0  0  0  0  0  0
    1.1755    3.0725   -0.1381 h   0  0  0  0  0  0  0  0  0  0  0  0
    2.2041    1.3701   -1.5897 h   0  0  0  0  0  0  0  0  0  0  0  0
   -0.1677    0.1614   -1.9415 h   0  0  0  0  0  0  0  0  0  0  0  0
    1.8934   -1.5492    0.8517 h   0  0  0  0  0  0  0  0  0  0  0  0
    1.1342   -0.4786    2.0264 h   0  0  0  0  0  0  0  0  0  0  0  0
    1.9069   -0.7789   -2.5857 h   0  0  0  0  0  0  0  0  0  0  0  0
    0.2580   -2.6842   -0.4437 h   0  0  0  0  0  0  0  0  0  0  0  0
   -1.3629   -1.9980   -0.7032 h   0  0  0  0  0  0  0  0  0  0  0  0
    3.7788    0.5337    1.7889 h   0  0  0  0  0  0  0  0  0  0  0  0
    3.8926    1.7530    0.4271 h   0  0  0  0  0  0  0  0  0  0  0  0
   -3.5456    0.9146   -1.6241 h   0  0  0  0  0  0  0  0  0  0  0  0
   -1.8459    1.5491   -1.7557 h   0  0  0  0  0  0  0  0  0  0  0  0
   -1.1296   -3.4158    1.1906 h   0  0  0  0  0  0  0  0  0  0  0  0
   -3.6660    0.2410    1.5564 h   0  0  0  0  0  0  0  0  0  0  0  0
   -4.2186   -0.5528    0.0780 h   0  0  0  0  0  0  0  0  0  0  0  0
   -2.9727   -1.3043    1.0967 h   0  0  0  0  0  0  0  0  0  0  0  0
  1  2  1  0  0  0  0
  2  3  1  0  0  0  0
  3  4  1  0  0  0  0
  4  5  1  0  0  0  0
  1  6  1  0  0  0  0
  5  6  1  0  0  0  0
  1  7  1  0  0  0  0
  5  8  1  0  0  0  0
  7  8  1  0  0  0  0
  6  9  1  0  0  0  0
  1 10  1  0  0  0  0
  8 11  2  0  0  0  0
  2 12  1  0  0  0  0
 12 13  2  0  0  0  0
  2 14  1  0  0  0  0
 10 15  1  0  0  0  0
 12 16  1  0  0  0  0
  3 17  1  0  0  0  0
  3 18  1  0  0  0  0
  4 19  1  0  0  0  0
  4 20  1  0  0  0  0
  5 21  1  0  0  0  0
  6 22  1  0  0  0  0
  7 23  1  0  0  0  0
  7 24  1  0  0  0  0
  9 25  1  0  0  0  0
 10 26  1  0  0  0  0
 10 27  1  0  0  0  0
 11 28  1  0  0  0  0
 11 29  1  0  0  0  0
 13 30  1  0  0  0  0
 13 31  1  0  0  0  0
 15 32  1  0  0  0  0
 16 33  1  0  0  0  0
 16 34  1  0  0  0  0
 16 35  1  0  0  0  0
M  END
