 xtb: 6.7.1 (edcfbbe)
          08092621573D

 50 55  0     0  0            999 V2000
   -0.4174    0.0917   -2.5198 c   0  0  0  0  0  0  0  0  0  0  0  0
    1.1047    0.0820   -2.6160 c   0  0  0  0  0  0  0  0  0  0  0  0
   -2.6007    3.1631    0.6664 c   0  0  0  0  0  0  0  0  0  0  0  0
   -3.7484    2.5664    0.1689 c   0  0  0  0  0  0  0  0  0  0  0  0
   -3.6672    1.3187   -0.4099 c   0  0  0  0  0  0  0  0  0  0  0  0
   -2.4496    0.6392   -0.4758 c   0  0  0  0  0  0  0  0  0  0  0  0
   -1.3084    1.1796    0.1374 c   0  0  0  0  0  0  0  0  0  0  0  0
   -1.4085    2.4628    0.6657 c   0  0  0  0  0  0  0  0  0  0  0  0
   -2.3598   -0.4997   -1.2561 n   0  0  0  0  0  0  0  0  0  0  0  0
   -1.0248   -0.9444   -1.5516 c   0  0  0  0  0  0  0  0  0  0  0  0
   -0.1681   -1.0762   -0.2606 c   0  0  0  0  0  0  0  0  0  0  0  0
   -0.0686    0.3327    0.3879 c   0  0  0  0  0  0  0  0  0  0  0  0
    1.2502   -1.4629   -0.6979 c   0  0  0  0  0  0  0  0  0  0  0  0
    1.7670   -0.1234   -1.2470 c   0  0  0  0  0  0  0  0  0  0  0  0
    1.2645    0.8452   -0.1841 c   0  0  0  0  0  0  0  0  0  0  0  0
    3.2520    0.0630   -1.3927 c   0  0  0  0  0  0  0  0  0  0  0  0
    3.9582    0.9168   -0.6644 c   0  0  0  0  0  0  0  0  0  0  0  0
    3.3948    1.6378    0.5323 c   0  0  0  0  0  0  0  0  0  0  0  0
    2.2429    0.8288    0.9727 n   0  0  0  0  0  0  0  0  0  0  0  0
    1.3960    1.2980    2.0835 c   0  0  0  0  0  0  0  0  0  0  0  0
    0.1994    0.3567    1.9204 c   0  0  0  0  0  0  0  0  0  0  0  0
    2.7271   -0.3796    1.3409 o   0  0  0  0  0  0  0  0  0  0  0  0
    1.2027    1.8742   -0.5388 h   0  0  0  0  0  0  0  0  0  0  0  0
   -0.8436   -2.0872    0.6277 c   0  0  0  0  0  0  0  0  0  0  0  0
   -1.8391   -1.8678    1.2874 o   0  0  0  0  0  0  0  0  0  0  0  0
   -0.2660   -3.2832    0.5656 o   0  0  0  0  0  0  0  0  0  0  0  0
   -0.8468   -4.3264    1.3477 c   0  0  0  0  0  0  0  0  0  0  0  0
   -0.8499   -0.0780   -3.5070 h   0  0  0  0  0  0  0  0  0  0  0  0
   -0.7444    1.0781   -2.1918 h   0  0  0  0  0  0  0  0  0  0  0  0
    1.4381   -0.7293   -3.2656 h   0  0  0  0  0  0  0  0  0  0  0  0
    1.4385    1.0222   -3.0603 h   0  0  0  0  0  0  0  0  0  0  0  0
   -2.6384    4.1600    1.0791 h   0  0  0  0  0  0  0  0  0  0  0  0
   -4.6954    3.0837    0.2115 h   0  0  0  0  0  0  0  0  0  0  0  0
   -4.5416    0.8519   -0.8385 h   0  0  0  0  0  0  0  0  0  0  0  0
   -0.5423    2.9342    1.1011 h   0  0  0  0  0  0  0  0  0  0  0  0
   -3.0730   -1.1974   -1.1154 h   0  0  0  0  0  0  0  0  0  0  0  0
   -1.0761   -1.9249   -2.0340 h   0  0  0  0  0  0  0  0  0  0  0  0
    1.8524   -1.7692    0.1566 h   0  0  0  0  0  0  0  0  0  0  0  0
    1.2446   -2.2550   -1.4437 h   0  0  0  0  0  0  0  0  0  0  0  0
    3.7232   -0.4945   -2.1885 h   0  0  0  0  0  0  0  0  0  0  0  0
    5.0129    1.0594   -0.8444 h   0  0  0  0  0  0  0  0  0  0  0  0
    3.0963    2.6661    0.3087 h   0  0  0  0  0  0  0  0  0  0  0  0
    4.1295    1.6352    1.3402 h   0  0  0  0  0  0  0  0  0  0  0  0
    1.9268    1.1381    3.0209 h   0  0  0  0  0  0  0  0  0  0  0  0
    1.1412    2.3495    1.9618 h   0  0  0  0  0  0  0  0  0  0  0  0
   -0.6729    0.6744    2.4863 h   0  0  0  0  0  0  0  0  0  0  0  0
    0.5071   -0.6312    2.2643 h   0  0  0  0  0  0  0  0  0  0  0  0
   -1.8518   -4.5518    0.9857 h   0  0  0  0  0  0  0  0  0  0  0  0
   -0.1908   -5.1841    1.2304 h   0  0  0  0  0  0  0  0  0  0  0  0
   -0.9076   -4.0231    2.3941 h   0  0  0  0  0  0  0  0  0  0  0  0
  1  2  1  0  0  0  0
  3  4  4  0  0  0  0
  4  5  4  0  0  0  0
  5  6  4  0  0  0  0
  6  7  4  0  0  0  0
  3  8  4  0  0  0  0
  7  8  4  0  0  0  0
  6  9  1  0  0  0  0
  1 10  1  0  0  0  0
  9 10  1  0  0  0  0
 10 11  1  0  0  0  0
  7 12  1  0  0  0  0
 11 12  1  0  0  0  0
 11 13  1  0  0  0  0
  2 14  1  0  0  0  0
 13 14  1  0  0  0  0
 12 15  1  0  0  0  0
 14 15  1  0  0  0  0
 14 16  1  0  0  0  0
 16 17  2  0  0  0  0
 17 18  1  0  0  0  0
 15 19  1  0  0  0  0
 18 19  1  0  0  0  0
 19 20  1  0  0  0  0
 12 21  1  0  0  0  0
 20 21  1  0  0  0  0
 19 22  1  0  0  0  0
 15 23  1  0  0  0  0
 11 24  1  0  0  0  0
 24 25  2  0  0  0  0
 24 26  1  0  0  0  0
 26 27  1  0  0  0  0
  1 28  1  0  0  0  0
  1 29  1  0  0  0  0
  2 30  1  0  0  0  0
  2 31  1  0  0  0  0
  3 32  1  0  0  0  0
  4 33  1  0  0  0  0
  5 34  1  0  0  0  0
  8 35  1  0  0  0  0
  9 36  1  0  0  0  0
 10 37  1  0  0  0  0
 13 38  1  0  0  0  0
 13 39  1  0  0  0  0
 16 40  1  0  0  0  0
 17 41  1  0  0  0  0
 18 42  1  0  0  0  0
 18 43  1  0  0  0  0
 20 44  1  0  0  0  0
 20 45  1  0  0  0  0
 21 46  1  0  0  0  0
 21 47  1  0  0  0  0
 27 48  1  0  0  0  0
 27 49  1  0  0  0  0
 27 50  1  0  0  0  0
M  END
