 xtb: 6.7.1 (edcfbbe)
          08092615283D

 35 36  0     0  0            999 V2000
    0.1127   -0.6451    0.0942 c   0  0  0  0  0  0  0  0  0  0  0  0
   -0.8988    0.3713    0.6849 c   0  0  0  0  0  0  0  0  0  0  0  0
   -0.3309    1.8091    0.6997 c   0  0  0  0  0  0  0  0  0  0  0  0
    0.5555    2.1840   -0.4887 c   0  0  0  0  0  0  0  0  0  0  0  0
    1.5099    1.0350   -0.8238 c   0  0  0  0  0  0  0  0  0  0  0  0
    0.6656   -0.1612   -1.2630 c   0  0  0  0  0  0  0  0  0  0  0  0
    1.3890   -0.6274    0.9572 c   0  0  0  0  0  0  0  0  0  0  0  0
    2.1903    0.5296    0.4229 c   0  0  0  0  0  0  0  0  0  0  0  0
    1.5142   -1.1051   -1.8960 o   0  0  0  0  0  0  0  0  0  0  0  0
   -0.5108   -2.0472   -0.0032 c   0  0  0  0  0  0  0  0  0  0  0  0
    3.2977    1.0197    0.9490 c   0  0  0  0  0  0  0  0  0  0  0  0
   -2.3017    0.3042    0.1140 c   0  0  0  0  0  0  0  0  0  0  0  0
   -3.3053   -0.0874    0.8904 c   0  0  0  0  0  0  0  0  0  0  0  0
   -1.0066    0.0879    1.7391 h   0  0  0  0  0  0  0  0  0  0  0  0
   -1.0272   -2.5348    1.2144 o   0  0  0  0  0  0  0  0  0  0  0  0
   -2.5740    0.7271   -1.2987 c   0  0  0  0  0  0  0  0  0  0  0  0
   -1.1612    2.5139    0.7802 h   0  0  0  0  0  0  0  0  0  0  0  0
    0.2723    1.9161    1.6030 h   0  0  0  0  0  0  0  0  0  0  0  0
   -0.0383    2.4190   -1.3737 h   0  0  0  0  0  0  0  0  0  0  0  0
    1.1301    3.0752   -0.2299 h   0  0  0  0  0  0  0  0  0  0  0  0
    2.2215    1.3287   -1.5972 h   0  0  0  0  0  0  0  0  0  0  0  0
   -0.1207    0.1348   -1.9627 h   0  0  0  0  0  0  0  0  0  0  0  0
    1.9473   -1.5543    0.8062 h   0  0  0  0  0  0  0  0  0  0  0  0
    1.1788   -0.5391    2.0225 h   0  0  0  0  0  0  0  0  0  0  0  0
    0.9832   -1.8485   -2.2036 h   0  0  0  0  0  0  0  0  0  0  0  0
    0.2576   -2.7710   -0.2894 h   0  0  0  0  0  0  0  0  0  0  0  0
   -1.2996   -2.0480   -0.7696 h   0  0  0  0  0  0  0  0  0  0  0  0
    3.7235    0.6154    1.8522 h   0  0  0  0  0  0  0  0  0  0  0  0
    3.8256    1.8414    0.4953 h   0  0  0  0  0  0  0  0  0  0  0  0
   -4.3203   -0.1251    0.5303 h   0  0  0  0  0  0  0  0  0  0  0  0
   -3.1699   -0.3689    1.9228 h   0  0  0  0  0  0  0  0  0  0  0  0
   -1.7874   -1.9883    1.4550 h   0  0  0  0  0  0  0  0  0  0  0  0
   -2.0757    1.6653   -1.5268 h   0  0  0  0  0  0  0  0  0  0  0  0
   -2.2281   -0.0250   -2.0068 h   0  0  0  0  0  0  0  0  0  0  0  0
   -3.6435    0.8574   -1.4494 h   0  0  0  0  0  0  0  0  0  0  0  0
  1  2  1  0  0  0  0
  2  3  1  0  0  0  0
  3  4  1  0  0  0  0
  4  5  1  0  0  0  0
  1  6  1  0  0  0  0
  5  6  1  0  0  0  0
  1  7  1  0  0  0  0
  5  8  1  0  0  0  0
  7  8  1  0  0  0  0
  6  9  1  0  0  0  0
  1 10  1  0  0  0  0
  8 11  2  0  0  0  0
  2 12  1  0  0  0  0
 12 13  2  0  0  0  0
  2 14  1  0  0  0  0
 10 15  1  0  0  0  0
 12 16  1  0  0  0  0
  3 17  1  0  0  0  0
  3 18  1  0  0  0  0
  4 19  1  0  0  0  0
  4 20  1  0  0  0  0
  5 21  1  0  0  0  0
  6 22  1  0  0  0  0
  7 23  1  0  0  0  0
  7 24  1  0  0  0  0
  9 25  1  0  0  0  0
 10 26  1  0  0  0  0
 10 27  1  0  0  0  0
 11 28  1  0  0  0  0
 11 29  1  0  0  0  0
 13 30  1  0  0  0  0
 13 31  1  0  0  0  0
 15 32  1  0  0  0  0
 16 33  1  0  0  0  0
 16 34  1  0  0  0  0
 16 35  1  0  0  0  0
M  END
