 xtb: 6.7.1 (edcfbbe)
          08092600333D

 42 44  0     0  0            999 V2000
    1.0116    1.5242   -0.1798 c   0  0  0  0  0  0  0  0  0  0  0  0
    2.4944    1.1366   -0.0493 c   0  0  0  0  0  0  0  0  0  0  0  0
    2.8448   -0.2597    0.4658 c   0  0  0  0  0  0  0  0  0  0  0  0
    2.4342   -1.3706   -0.5061 c   0  0  0  0  0  0  0  0  0  0  0  0
    1.0364   -1.9504   -0.2538 c   0  0  0  0  0  0  0  0  0  0  0  0
    0.0582   -0.8751    0.2172 c   0  0  0  0  0  0  0  0  0  0  0  0
    0.0506    0.4136   -0.6144 c   0  0  0  0  0  0  0  0  0  0  0  0
    0.3869    2.0008    1.1413 c   0  0  0  0  0  0  0  0  0  0  0  0
   -1.1328    1.8101    0.9838 c   0  0  0  0  0  0  0  0  0  0  0  0
   -1.3492    0.9464   -0.2770 c   0  0  0  0  0  0  0  0  0  0  0  0
   -1.2644   -1.3871    0.1471 o   0  0  0  0  0  0  0  0  0  0  0  0
   -2.1927   -0.3405   -0.1451 c   0  0  0  0  0  0  0  0  0  0  0  0
    0.1579    0.1646   -1.6723 h   0  0  0  0  0  0  0  0  0  0  0  0
   -1.7620    1.5591   -1.0793 h   0  0  0  0  0  0  0  0  0  0  0  0
    0.2681   -0.6344    1.2685 h   0  0  0  0  0  0  0  0  0  0  0  0
    1.0784   -3.0804    0.7732 c   0  0  0  0  0  0  0  0  0  0  0  0
   -2.8615   -0.6575   -1.4909 c   0  0  0  0  0  0  0  0  0  0  0  0
   -3.2676   -0.3028    0.9448 c   0  0  0  0  0  0  0  0  0  0  0  0
    0.9397    2.6709   -1.1994 c   0  0  0  0  0  0  0  0  0  0  0  0
    2.9586    1.2393   -1.0339 h   0  0  0  0  0  0  0  0  0  0  0  0
    2.9663    1.8769    0.6032 h   0  0  0  0  0  0  0  0  0  0  0  0
    3.9312   -0.2870    0.5858 h   0  0  0  0  0  0  0  0  0  0  0  0
    2.4141   -0.4335    1.4511 h   0  0  0  0  0  0  0  0  0  0  0  0
    3.1519   -2.1912   -0.4427 h   0  0  0  0  0  0  0  0  0  0  0  0
    2.4905   -0.9746   -1.5220 h   0  0  0  0  0  0  0  0  0  0  0  0
    0.6449   -2.3594   -1.1912 h   0  0  0  0  0  0  0  0  0  0  0  0
    0.6439    3.0404    1.3434 h   0  0  0  0  0  0  0  0  0  0  0  0
    0.7657    1.4043    1.9716 h   0  0  0  0  0  0  0  0  0  0  0  0
   -1.5445    1.3348    1.8703 h   0  0  0  0  0  0  0  0  0  0  0  0
   -1.6350    2.7708    0.8692 h   0  0  0  0  0  0  0  0  0  0  0  0
    1.5349   -2.7386    1.6999 h   0  0  0  0  0  0  0  0  0  0  0  0
    0.0668   -3.4145    0.9863 h   0  0  0  0  0  0  0  0  0  0  0  0
    1.6545   -3.9217    0.3942 h   0  0  0  0  0  0  0  0  0  0  0  0
   -3.6580    0.0533   -1.6959 h   0  0  0  0  0  0  0  0  0  0  0  0
   -3.2795   -1.6601   -1.4561 h   0  0  0  0  0  0  0  0  0  0  0  0
   -2.1325   -0.6195   -2.2964 h   0  0  0  0  0  0  0  0  0  0  0  0
   -2.8173   -0.3520    1.9321 h   0  0  0  0  0  0  0  0  0  0  0  0
   -3.8609    0.6039    0.8612 h   0  0  0  0  0  0  0  0  0  0  0  0
   -3.9190   -1.1659    0.8361 h   0  0  0  0  0  0  0  0  0  0  0  0
    1.1949    2.3162   -2.1961 h   0  0  0  0  0  0  0  0  0  0  0  0
   -0.0546    3.1055   -1.2348 h   0  0  0  0  0  0  0  0  0  0  0  0
    1.6434    3.4550   -0.9264 h   0  0  0  0  0  0  0  0  0  0  0  0
  1  2  1  0  0  0  0
  2  3  1  0  0  0  0
  3  4  1  0  0  0  0
  4  5  1  0  0  0  0
  5  6  1  0  0  0  0
  1  7  1  0  0  0  0
  6  7  1  0  0  0  0
  1  8  1  0  0  0  0
  8  9  1  0  0  0  0
  7 10  1  0  0  0  0
  9 10  1  0  0  0  0
  6 11  1  0  0  0  0
 10 12  1  0  0  0  0
 11 12  1  0  0  0  0
  7 13  1  0  0  0  0
 10 14  1  0  0  0  0
  6 15  1  0  0  0  0
  5 16  1  0  0  0  0
 12 17  1  0  0  0  0
 12 18  1  0  0  0  0
  1 19  1  0  0  0  0
  2 20  1  0  0  0  0
  2 21  1  0  0  0  0
  3 22  1  0  0  0  0
  3 23  1  0  0  0  0
  4 24  1  0  0  0  0
  4 25  1  0  0  0  0
  5 26  1  0  0  0  0
  8 27  1  0  0  0  0
  8 28  1  0  0  0  0
  9 29  1  0  0  0  0
  9 30  1  0  0  0  0
 16 31  1  0  0  0  0
 16 32  1  0  0  0  0
 16 33  1  0  0  0  0
 17 34  1  0  0  0  0
 17 35  1  0  0  0  0
 17 36  1  0  0  0  0
 18 37  1  0  0  0  0
 18 38  1  0  0  0  0
 18 39  1  0  0  0  0
 19 40  1  0  0  0  0
 19 41  1  0  0  0  0
 19 42  1  0  0  0  0
M  END
