 xtb: 6.7.1 (edcfbbe)
          08092617483D

 35 36  0     0  0            999 V2000
    0.0331   -0.7774   -0.0268 c   0  0  0  0  0  0  0  0  0  0  0  0
    0.6488    0.4141   -0.8134 c   0  0  0  0  0  0  0  0  0  0  0  0
   -0.4020    1.5225   -0.9973 c   0  0  0  0  0  0  0  0  0  0  0  0
   -1.2448    1.8018    0.2463 c   0  0  0  0  0  0  0  0  0  0  0  0
   -1.7722    0.4914    0.8408 c   0  0  0  0  0  0  0  0  0  0  0  0
   -0.5872   -0.3524    1.3203 c   0  0  0  0  0  0  0  0  0  0  0  0
   -1.2326   -1.2588   -0.7637 c   0  0  0  0  0  0  0  0  0  0  0  0
   -2.3397   -0.3753   -0.2510 c   0  0  0  0  0  0  0  0  0  0  0  0
    0.2317    0.3353    2.2283 o   0  0  0  0  0  0  0  0  0  0  0  0
    1.0352   -1.9211    0.1425 c   0  0  0  0  0  0  0  0  0  0  0  0
   -3.5858   -0.3571   -0.6863 c   0  0  0  0  0  0  0  0  0  0  0  0
    1.9877    0.9097   -0.2970 c   0  0  0  0  0  0  0  0  0  0  0  0
    3.1001    0.3067   -0.6959 c   0  0  0  0  0  0  0  0  0  0  0  0
    0.8626   -0.0008   -1.8056 h   0  0  0  0  0  0  0  0  0  0  0  0
    1.3780   -2.4353   -1.1247 o   0  0  0  0  0  0  0  0  0  0  0  0
    2.0636    2.1097    0.5983 c   0  0  0  0  0  0  0  0  0  0  0  0
    0.0906    2.4382   -1.3271 h   0  0  0  0  0  0  0  0  0  0  0  0
   -1.0793    1.2212   -1.7993 h   0  0  0  0  0  0  0  0  0  0  0  0
   -0.6659    2.3165    1.0106 h   0  0  0  0  0  0  0  0  0  0  0  0
   -2.0881    2.4378   -0.0308 h   0  0  0  0  0  0  0  0  0  0  0  0
   -2.4838    0.7005    1.6409 h   0  0  0  0  0  0  0  0  0  0  0  0
   -0.9786   -1.2620    1.8122 h   0  0  0  0  0  0  0  0  0  0  0  0
   -1.1220   -1.2146   -1.8460 h   0  0  0  0  0  0  0  0  0  0  0  0
   -1.4386   -2.3003   -0.5035 h   0  0  0  0  0  0  0  0  0  0  0  0
    1.0014   -0.2088    2.4220 h   0  0  0  0  0  0  0  0  0  0  0  0
    0.5739   -2.7100    0.7592 h   0  0  0  0  0  0  0  0  0  0  0  0
    1.9337   -1.5586    0.6639 h   0  0  0  0  0  0  0  0  0  0  0  0
   -3.9155   -0.9955   -1.4887 h   0  0  0  0  0  0  0  0  0  0  0  0
   -4.3257    0.2975   -0.2582 h   0  0  0  0  0  0  0  0  0  0  0  0
    4.0732    0.6282   -0.3614 h   0  0  0  0  0  0  0  0  0  0  0  0
    3.0842   -0.5303   -1.3735 h   0  0  0  0  0  0  0  0  0  0  0  0
    2.0266   -3.1370   -1.0121 h   0  0  0  0  0  0  0  0  0  0  0  0
    1.4505    1.9776    1.4846 h   0  0  0  0  0  0  0  0  0  0  0  0
    3.0931    2.2822    0.9043 h   0  0  0  0  0  0  0  0  0  0  0  0
    1.7147    2.9986    0.0747 h   0  0  0  0  0  0  0  0  0  0  0  0
  1  2  1  0  0  0  0
  2  3  1  0  0  0  0
  3  4  1  0  0  0  0
  4  5  1  0  0  0  0
  1  6  1  0  0  0  0
  5  6  1  0  0  0  0
  1  7  1  0  0  0  0
  5  8  1  0  0  0  0
  7  8  1  0  0  0  0
  6  9  1  0  0  0  0
  1 10  1  0  0  0  0
  8 11  2  0  0  0  0
  2 12  1  0  0  0  0
 12 13  2  0  0  0  0
  2 14  1  0  0  0  0
 10 15  1  0  0  0  0
 12 16  1  0  0  0  0
  3 17  1  0  0  0  0
  3 18  1  0  0  0  0
  4 19  1  0  0  0  0
  4 20  1  0  0  0  0
  5 21  1  0  0  0  0
  6 22  1  0  0  0  0
  7 23  1  0  0  0  0
  7 24  1  0  0  0  0
  9 25  1  0  0  0  0
 10 26  1  0  0  0  0
 10 27  1  0  0  0  0
 11 28  1  0  0  0  0
 11 29  1  0  0  0  0
 13 30  1  0  0  0  0
 13 31  1  0  0  0  0
 15 32  1  0  0  0  0
 16 33  1  0  0  0  0
 16 34  1  0  0  0  0
 16 35  1  0  0  0  0
M  END
