 xtb: 6.7.1 (edcfbbe)
          08092616283D

 35 36  0     0  0            999 V2000
   -0.0416   -0.5624    0.3058 c   0  0  0  0  0  0  0  0  0  0  0  0
   -1.0156    0.5663    0.7289 c   0  0  0  0  0  0  0  0  0  0  0  0
   -0.3567    1.9575    0.6007 c   0  0  0  0  0  0  0  0  0  0  0  0
    0.5636    2.1412   -0.6068 c   0  0  0  0  0  0  0  0  0  0  0  0
    1.4491    0.9079   -0.8068 c   0  0  0  0  0  0  0  0  0  0  0  0
    0.5430   -0.2894   -1.0969 c   0  0  0  0  0  0  0  0  0  0  0  0
    1.2216   -0.4856    1.1858 c   0  0  0  0  0  0  0  0  0  0  0  0
    2.1124    0.5111    0.4902 c   0  0  0  0  0  0  0  0  0  0  0  0
    1.2674   -1.3866   -1.6366 o   0  0  0  0  0  0  0  0  0  0  0  0
   -0.7517   -1.9207    0.4221 c   0  0  0  0  0  0  0  0  0  0  0  0
    3.2766    0.9562    0.9280 c   0  0  0  0  0  0  0  0  0  0  0  0
   -2.3973    0.5028    0.1089 c   0  0  0  0  0  0  0  0  0  0  0  0
   -3.4333    0.1642    0.8652 c   0  0  0  0  0  0  0  0  0  0  0  0
   -1.1868    0.4060    1.8003 h   0  0  0  0  0  0  0  0  0  0  0  0
    0.1002   -3.0276    0.2282 o   0  0  0  0  0  0  0  0  0  0  0  0
   -2.6126    0.8659   -1.3305 c   0  0  0  0  0  0  0  0  0  0  0  0
   -1.1394    2.7185    0.5881 h   0  0  0  0  0  0  0  0  0  0  0  0
    0.2405    2.1266    1.4986 h   0  0  0  0  0  0  0  0  0  0  0  0
   -0.0064    2.3107   -1.5214 h   0  0  0  0  0  0  0  0  0  0  0  0
    1.1907    3.0194   -0.4403 h   0  0  0  0  0  0  0  0  0  0  0  0
    2.1668    1.0851   -1.6119 h   0  0  0  0  0  0  0  0  0  0  0  0
   -0.2191   -0.0757   -1.8443 h   0  0  0  0  0  0  0  0  0  0  0  0
    1.6979   -1.4696    1.2336 h   0  0  0  0  0  0  0  0  0  0  0  0
    0.9958   -0.1904    2.2104 h   0  0  0  0  0  0  0  0  0  0  0  0
    2.0995   -1.4593   -1.1492 h   0  0  0  0  0  0  0  0  0  0  0  0
   -1.5836   -1.9574   -0.2944 h   0  0  0  0  0  0  0  0  0  0  0  0
   -1.1628   -2.0356    1.4286 h   0  0  0  0  0  0  0  0  0  0  0  0
    3.6876    0.6367    1.8711 h   0  0  0  0  0  0  0  0  0  0  0  0
    3.8620    1.6627    0.3638 h   0  0  0  0  0  0  0  0  0  0  0  0
   -4.4360    0.1285    0.4725 h   0  0  0  0  0  0  0  0  0  0  0  0
   -3.3280   -0.1008    1.9039 h   0  0  0  0  0  0  0  0  0  0  0  0
    0.5105   -2.9078   -0.6451 h   0  0  0  0  0  0  0  0  0  0  0  0
   -2.0728    1.7703   -1.5958 h   0  0  0  0  0  0  0  0  0  0  0  0
   -2.2813    0.0618   -1.9867 h   0  0  0  0  0  0  0  0  0  0  0  0
   -3.6718    1.0284   -1.5177 h   0  0  0  0  0  0  0  0  0  0  0  0
  1  2  1  0  0  0  0
  2  3  1  0  0  0  0
  3  4  1  0  0  0  0
  4  5  1  0  0  0  0
  1  6  1  0  0  0  0
  5  6  1  0  0  0  0
  1  7  1  0  0  0  0
  5  8  1  0  0  0  0
  7  8  1  0  0  0  0
  6  9  1  0  0  0  0
  1 10  1  0  0  0  0
  8 11  2  0  0  0  0
  2 12  1  0  0  0  0
 12 13  2  0  0  0  0
  2 14  1  0  0  0  0
 10 15  1  0  0  0  0
 12 16  1  0  0  0  0
  3 17  1  0  0  0  0
  3 18  1  0  0  0  0
  4 19  1  0  0  0  0
  4 20  1  0  0  0  0
  5 21  1  0  0  0  0
  6 22  1  0  0  0  0
  7 23  1  0  0  0  0
  7 24  1  0  0  0  0
  9 25  1  0  0  0  0
 10 26  1  0  0  0  0
 10 27  1  0  0  0  0
 11 28  1  0  0  0  0
 11 29  1  0  0  0  0
 13 30  1  0  0  0  0
 13 31  1  0  0  0  0
 15 32  1  0  0  0  0
 16 33  1  0  0  0  0
 16 34  1  0  0  0  0
 16 35  1  0  0  0  0
M  END
