 xtb: 6.7.1 (edcfbbe)
          08092618203D

 35 36  0     0  0            999 V2000
    0.0092   -0.7571   -0.0431 c   0  0  0  0  0  0  0  0  0  0  0  0
    0.6258    0.4755   -0.7669 c   0  0  0  0  0  0  0  0  0  0  0  0
   -0.4222    1.6012   -0.8964 c   0  0  0  0  0  0  0  0  0  0  0  0
   -1.3030    1.8120    0.3366 c   0  0  0  0  0  0  0  0  0  0  0  0
   -1.8103    0.4709    0.8744 c   0  0  0  0  0  0  0  0  0  0  0  0
   -0.6133   -0.3887    1.3196 c   0  0  0  0  0  0  0  0  0  0  0  0
   -1.2521   -1.2034   -0.8115 c   0  0  0  0  0  0  0  0  0  0  0  0
   -2.3685   -0.3542   -0.2538 c   0  0  0  0  0  0  0  0  0  0  0  0
    0.2434    0.1621    2.2805 o   0  0  0  0  0  0  0  0  0  0  0  0
    1.0069   -1.9087    0.1278 c   0  0  0  0  0  0  0  0  0  0  0  0
   -3.6165   -0.3382   -0.6850 c   0  0  0  0  0  0  0  0  0  0  0  0
    1.9600    0.9657   -0.2325 c   0  0  0  0  0  0  0  0  0  0  0  0
    2.1156    1.9740    0.6174 c   0  0  0  0  0  0  0  0  0  0  0  0
    0.8479    0.1290   -1.7845 h   0  0  0  0  0  0  0  0  0  0  0  0
    1.5402   -2.3920   -1.0883 o   0  0  0  0  0  0  0  0  0  0  0  0
    3.1706    0.3316   -0.8579 c   0  0  0  0  0  0  0  0  0  0  0  0
    0.0900    2.5320   -1.1470 h   0  0  0  0  0  0  0  0  0  0  0  0
   -1.0808    1.3607   -1.7333 h   0  0  0  0  0  0  0  0  0  0  0  0
   -0.7702    2.3288    1.1359 h   0  0  0  0  0  0  0  0  0  0  0  0
   -2.1554    2.4350    0.0574 h   0  0  0  0  0  0  0  0  0  0  0  0
   -2.5274    0.6345    1.6808 h   0  0  0  0  0  0  0  0  0  0  0  0
   -0.9978   -1.3038    1.7910 h   0  0  0  0  0  0  0  0  0  0  0  0
   -1.1560   -1.0861   -1.8915 h   0  0  0  0  0  0  0  0  0  0  0  0
   -1.4647   -2.2565   -0.6045 h   0  0  0  0  0  0  0  0  0  0  0  0
    0.7945    0.8317    1.8466 h   0  0  0  0  0  0  0  0  0  0  0  0
    0.5096   -2.7269    0.6684 h   0  0  0  0  0  0  0  0  0  0  0  0
    1.8582   -1.5838    0.7293 h   0  0  0  0  0  0  0  0  0  0  0  0
   -3.9403   -0.9484   -1.5118 h   0  0  0  0  0  0  0  0  0  0  0  0
   -4.3651    0.2862   -0.2279 h   0  0  0  0  0  0  0  0  0  0  0  0
    3.1011    2.2935    0.9153 h   0  0  0  0  0  0  0  0  0  0  0  0
    1.3078    2.5553    1.0266 h   0  0  0  0  0  0  0  0  0  0  0  0
    0.8079   -2.7061   -1.6339 h   0  0  0  0  0  0  0  0  0  0  0  0
    3.0303   -0.7293   -1.0381 h   0  0  0  0  0  0  0  0  0  0  0  0
    3.3523    0.8041   -1.8250 h   0  0  0  0  0  0  0  0  0  0  0  0
    4.0531    0.4783   -0.2401 h   0  0  0  0  0  0  0  0  0  0  0  0
  1  2  1  0  0  0  0
  2  3  1  0  0  0  0
  3  4  1  0  0  0  0
  4  5  1  0  0  0  0
  1  6  1  0  0  0  0
  5  6  1  0  0  0  0
  1  7  1  0  0  0  0
  5  8  1  0  0  0  0
  7  8  1  0  0  0  0
  6  9  1  0  0  0  0
  1 10  1  0  0  0  0
  8 11  2  0  0  0  0
  2 12  1  0  0  0  0
 12 13  2  0  0  0  0
  2 14  1  0  0  0  0
 10 15  1  0  0  0  0
 12 16  1  0  0  0  0
  3 17  1  0  0  0  0
  3 18  1  0  0  0  0
  4 19  1  0  0  0  0
  4 20  1  0  0  0  0
  5 21  1  0  0  0  0
  6 22  1  0  0  0  0
  7 23  1  0  0  0  0
  7 24  1  0  0  0  0
  9 25  1  0  0  0  0
 10 26  1  0  0  0  0
 10 27  1  0  0  0  0
 11 28  1  0  0  0  0
 11 29  1  0  0  0  0
 13 30  1  0  0  0  0
 13 31  1  0  0  0  0
 15 32  1  0  0  0  0
 16 33  1  0  0  0  0
 16 34  1  0  0  0  0
 16 35  1  0  0  0  0
M  END
