 xtb: 6.7.1 (edcfbbe)
          08092621573D

 50 55  0     0  0            999 V2000
   -0.3606    0.1161   -2.5542 c   0  0  0  0  0  0  0  0  0  0  0  0
    1.1592    0.2086   -2.6439 c   0  0  0  0  0  0  0  0  0  0  0  0
   -2.6809    2.9162    0.7520 c   0  0  0  0  0  0  0  0  0  0  0  0
   -3.7692    2.3387    0.1201 c   0  0  0  0  0  0  0  0  0  0  0  0
   -3.6162    1.1264   -0.5181 c   0  0  0  0  0  0  0  0  0  0  0  0
   -2.3892    0.4617   -0.5125 c   0  0  0  0  0  0  0  0  0  0  0  0
   -1.2985    1.0002    0.1917 c   0  0  0  0  0  0  0  0  0  0  0  0
   -1.4729    2.2417    0.7910 c   0  0  0  0  0  0  0  0  0  0  0  0
   -2.2425   -0.7174   -1.2132 n   0  0  0  0  0  0  0  0  0  0  0  0
   -0.8905   -1.0036   -1.6329 c   0  0  0  0  0  0  0  0  0  0  0  0
   -0.0346   -1.1503   -0.3521 c   0  0  0  0  0  0  0  0  0  0  0  0
   -0.0114    0.2118    0.3920 c   0  0  0  0  0  0  0  0  0  0  0  0
    1.4060   -1.4257   -0.8087 c   0  0  0  0  0  0  0  0  0  0  0  0
    1.8347   -0.0297   -1.2860 c   0  0  0  0  0  0  0  0  0  0  0  0
    1.2798    0.8440   -0.1669 c   0  0  0  0  0  0  0  0  0  0  0  0
    3.3041    0.2575   -1.4294 c   0  0  0  0  0  0  0  0  0  0  0  0
    3.9611    1.1196   -0.6659 c   0  0  0  0  0  0  0  0  0  0  0  0
    3.3633    1.7395    0.5699 c   0  0  0  0  0  0  0  0  0  0  0  0
    2.2751    0.8304    0.9761 n   0  0  0  0  0  0  0  0  0  0  0  0
    1.4160    1.1786    2.1206 c   0  0  0  0  0  0  0  0  0  0  0  0
    0.2842    0.1667    1.9181 c   0  0  0  0  0  0  0  0  0  0  0  0
    2.8458   -0.3602    1.2710 o   0  0  0  0  0  0  0  0  0  0  0  0
    1.1461    1.8849   -0.4634 h   0  0  0  0  0  0  0  0  0  0  0  0
   -0.6227   -2.3073    0.4230 c   0  0  0  0  0  0  0  0  0  0  0  0
   -0.3307   -3.4665    0.2257 o   0  0  0  0  0  0  0  0  0  0  0  0
   -1.5413   -1.9283    1.3026 o   0  0  0  0  0  0  0  0  0  0  0  0
   -2.2045   -2.9594    2.0330 c   0  0  0  0  0  0  0  0  0  0  0  0
   -0.7771   -0.0313   -3.5532 h   0  0  0  0  0  0  0  0  0  0  0  0
   -0.7450    1.0657   -2.1773 h   0  0  0  0  0  0  0  0  0  0  0  0
    1.5427   -0.5444   -3.3347 h   0  0  0  0  0  0  0  0  0  0  0  0
    1.4345    1.1907   -3.0353 h   0  0  0  0  0  0  0  0  0  0  0  0
   -2.7726    3.8822    1.2251 h   0  0  0  0  0  0  0  0  0  0  0  0
   -4.7248    2.8414    0.1058 h   0  0  0  0  0  0  0  0  0  0  0  0
   -4.4462    0.6767   -1.0445 h   0  0  0  0  0  0  0  0  0  0  0  0
   -0.6509    2.7085    1.3077 h   0  0  0  0  0  0  0  0  0  0  0  0
   -2.9664   -0.8991   -1.8933 h   0  0  0  0  0  0  0  0  0  0  0  0
   -0.8834   -1.9657   -2.1549 h   0  0  0  0  0  0  0  0  0  0  0  0
    2.0260   -1.7399    0.0302 h   0  0  0  0  0  0  0  0  0  0  0  0
    1.4450   -2.1819   -1.5897 h   0  0  0  0  0  0  0  0  0  0  0  0
    3.8019   -0.2300   -2.2545 h   0  0  0  0  0  0  0  0  0  0  0  0
    5.0026    1.3383   -0.8457 h   0  0  0  0  0  0  0  0  0  0  0  0
    2.9926    2.7548    0.4020 h   0  0  0  0  0  0  0  0  0  0  0  0
    4.1055    1.7459    1.3708 h   0  0  0  0  0  0  0  0  0  0  0  0
    1.9713    1.0030    3.0409 h   0  0  0  0  0  0  0  0  0  0  0  0
    1.0931    2.2167    2.0608 h   0  0  0  0  0  0  0  0  0  0  0  0
   -0.5960    0.3921    2.5141 h   0  0  0  0  0  0  0  0  0  0  0  0
    0.6714   -0.8132    2.1966 h   0  0  0  0  0  0  0  0  0  0  0  0
   -2.9269   -2.4537    2.6673 h   0  0  0  0  0  0  0  0  0  0  0  0
   -2.7016   -3.6456    1.3455 h   0  0  0  0  0  0  0  0  0  0  0  0
   -1.4840   -3.5195    2.6316 h   0  0  0  0  0  0  0  0  0  0  0  0
  1  2  1  0  0  0  0
  3  4  4  0  0  0  0
  4  5  4  0  0  0  0
  5  6  4  0  0  0  0
  6  7  4  0  0  0  0
  3  8  4  0  0  0  0
  7  8  4  0  0  0  0
  6  9  1  0  0  0  0
  1 10  1  0  0  0  0
  9 10  1  0  0  0  0
 10 11  1  0  0  0  0
  7 12  1  0  0  0  0
 11 12  1  0  0  0  0
 11 13  1  0  0  0  0
  2 14  1  0  0  0  0
 13 14  1  0  0  0  0
 12 15  1  0  0  0  0
 14 15  1  0  0  0  0
 14 16  1  0  0  0  0
 16 17  2  0  0  0  0
 17 18  1  0  0  0  0
 15 19  1  0  0  0  0
 18 19  1  0  0  0  0
 19 20  1  0  0  0  0
 12 21  1  0  0  0  0
 20 21  1  0  0  0  0
 19 22  1  0  0  0  0
 15 23  1  0  0  0  0
 11 24  1  0  0  0  0
 24 25  2  0  0  0  0
 24 26  1  0  0  0  0
 26 27  1  0  0  0  0
  1 28  1  0  0  0  0
  1 29  1  0  0  0  0
  2 30  1  0  0  0  0
  2 31  1  0  0  0  0
  3 32  1  0  0  0  0
  4 33  1  0  0  0  0
  5 34  1  0  0  0  0
  8 35  1  0  0  0  0
  9 36  1  0  0  0  0
 10 37  1  0  0  0  0
 13 38  1  0  0  0  0
 13 39  1  0  0  0  0
 16 40  1  0  0  0  0
 17 41  1  0  0  0  0
 18 42  1  0  0  0  0
 18 43  1  0  0  0  0
 20 44  1  0  0  0  0
 20 45  1  0  0  0  0
 21 46  1  0  0  0  0
 21 47  1  0  0  0  0
 27 48  1  0  0  0  0
 27 49  1  0  0  0  0
 27 50  1  0  0  0  0
M  END
