 xtb: 6.7.1 (edcfbbe)
          08092617483D

 35 36  0     0  0            999 V2000
    0.0299   -0.7774   -0.0349 c   0  0  0  0  0  0  0  0  0  0  0  0
    0.6549    0.4133   -0.8180 c   0  0  0  0  0  0  0  0  0  0  0  0
   -0.3962    1.5205   -1.0135 c   0  0  0  0  0  0  0  0  0  0  0  0
   -1.2418    1.8088    0.2266 c   0  0  0  0  0  0  0  0  0  0  0  0
   -1.7708    0.5041    0.8340 c   0  0  0  0  0  0  0  0  0  0  0  0
   -0.5871   -0.3437    1.3117 c   0  0  0  0  0  0  0  0  0  0  0  0
   -1.2426   -1.2507   -0.7719 c   0  0  0  0  0  0  0  0  0  0  0  0
   -2.3490   -0.3690   -0.2464 c   0  0  0  0  0  0  0  0  0  0  0  0
    0.2405    0.3461    2.2145 o   0  0  0  0  0  0  0  0  0  0  0  0
    1.0222   -1.9330    0.1481 c   0  0  0  0  0  0  0  0  0  0  0  0
   -3.6011   -0.3639   -0.6657 c   0  0  0  0  0  0  0  0  0  0  0  0
    1.9907    0.9099   -0.2880 c   0  0  0  0  0  0  0  0  0  0  0  0
    3.1050    0.2842   -0.6466 c   0  0  0  0  0  0  0  0  0  0  0  0
    0.8836    0.0059   -1.8114 h   0  0  0  0  0  0  0  0  0  0  0  0
    1.4714   -2.4913   -1.0681 o   0  0  0  0  0  0  0  0  0  0  0  0
    2.0633    2.1369    0.5711 c   0  0  0  0  0  0  0  0  0  0  0  0
    0.0972    2.4336   -1.3479 h   0  0  0  0  0  0  0  0  0  0  0  0
   -1.0713    1.2153   -1.8159 h   0  0  0  0  0  0  0  0  0  0  0  0
   -0.6644    2.3305    0.9874 h   0  0  0  0  0  0  0  0  0  0  0  0
   -2.0847    2.4422   -0.0569 h   0  0  0  0  0  0  0  0  0  0  0  0
   -2.4760    0.7218    1.6376 h   0  0  0  0  0  0  0  0  0  0  0  0
   -0.9788   -1.2471    1.8127 h   0  0  0  0  0  0  0  0  0  0  0  0
   -1.1529   -1.1838   -1.8566 h   0  0  0  0  0  0  0  0  0  0  0  0
   -1.4603   -2.2920   -0.5145 h   0  0  0  0  0  0  0  0  0  0  0  0
    1.0066   -0.2054    2.4113 h   0  0  0  0  0  0  0  0  0  0  0  0
    0.5523   -2.7148    0.7651 h   0  0  0  0  0  0  0  0  0  0  0  0
    1.9267   -1.5881    0.6549 h   0  0  0  0  0  0  0  0  0  0  0  0
   -3.9372   -1.0090   -1.4606 h   0  0  0  0  0  0  0  0  0  0  0  0
   -4.3398    0.2878   -0.2317 h   0  0  0  0  0  0  0  0  0  0  0  0
    4.0731    0.6092   -0.3010 h   0  0  0  0  0  0  0  0  0  0  0  0
    3.1003   -0.5821   -1.2871 h   0  0  0  0  0  0  0  0  0  0  0  0
    0.6988   -2.7823   -1.5697 h   0  0  0  0  0  0  0  0  0  0  0  0
    1.4507    2.0275    1.4612 h   0  0  0  0  0  0  0  0  0  0  0  0
    3.0922    2.3169    0.8744 h   0  0  0  0  0  0  0  0  0  0  0  0
    1.7144    3.0112    0.0241 h   0  0  0  0  0  0  0  0  0  0  0  0
  1  2  1  0  0  0  0
  2  3  1  0  0  0  0
  3  4  1  0  0  0  0
  4  5  1  0  0  0  0
  1  6  1  0  0  0  0
  5  6  1  0  0  0  0
  1  7  1  0  0  0  0
  5  8  1  0  0  0  0
  7  8  1  0  0  0  0
  6  9  1  0  0  0  0
  1 10  1  0  0  0  0
  8 11  2  0  0  0  0
  2 12  1  0  0  0  0
 12 13  2  0  0  0  0
  2 14  1  0  0  0  0
 10 15  1  0  0  0  0
 12 16  1  0  0  0  0
  3 17  1  0  0  0  0
  3 18  1  0  0  0  0
  4 19  1  0  0  0  0
  4 20  1  0  0  0  0
  5 21  1  0  0  0  0
  6 22  1  0  0  0  0
  7 23  1  0  0  0  0
  7 24  1  0  0  0  0
  9 25  1  0  0  0  0
 10 26  1  0  0  0  0
 10 27  1  0  0  0  0
 11 28  1  0  0  0  0
 11 29  1  0  0  0  0
 13 30  1  0  0  0  0
 13 31  1  0  0  0  0
 15 32  1  0  0  0  0
 16 33  1  0  0  0  0
 16 34  1  0  0  0  0
 16 35  1  0  0  0  0
M  END
