 xtb: 6.7.1 (edcfbbe)
          08092615283D

 35 36  0     0  0            999 V2000
    0.0873   -0.6186    0.1033 c   0  0  0  0  0  0  0  0  0  0  0  0
   -0.9407    0.4017    0.6534 c   0  0  0  0  0  0  0  0  0  0  0  0
   -0.3260    1.8128    0.7419 c   0  0  0  0  0  0  0  0  0  0  0  0
    0.5756    2.2059   -0.4288 c   0  0  0  0  0  0  0  0  0  0  0  0
    1.4967    1.0465   -0.8171 c   0  0  0  0  0  0  0  0  0  0  0  0
    0.6349   -0.1415   -1.2572 c   0  0  0  0  0  0  0  0  0  0  0  0
    1.3490   -0.5922    0.9869 c   0  0  0  0  0  0  0  0  0  0  0  0
    2.1951    0.5123    0.4085 c   0  0  0  0  0  0  0  0  0  0  0  0
    1.3781   -1.1223   -1.9424 o   0  0  0  0  0  0  0  0  0  0  0  0
   -0.5149   -2.0199   -0.0001 c   0  0  0  0  0  0  0  0  0  0  0  0
    3.3522    0.9362    0.8832 c   0  0  0  0  0  0  0  0  0  0  0  0
   -2.2751    0.3683   -0.0617 c   0  0  0  0  0  0  0  0  0  0  0  0
   -2.5428    0.9610   -1.2152 c   0  0  0  0  0  0  0  0  0  0  0  0
   -1.1463    0.0797    1.6803 h   0  0  0  0  0  0  0  0  0  0  0  0
   -0.8940   -2.4751    1.2838 o   0  0  0  0  0  0  0  0  0  0  0  0
   -3.3558   -0.3551    0.6902 c   0  0  0  0  0  0  0  0  0  0  0  0
   -1.1333    2.5411    0.8394 h   0  0  0  0  0  0  0  0  0  0  0  0
    0.2721    1.8656    1.6540 h   0  0  0  0  0  0  0  0  0  0  0  0
   -0.0138    2.4972   -1.2986 h   0  0  0  0  0  0  0  0  0  0  0  0
    1.1787    3.0685   -0.1363 h   0  0  0  0  0  0  0  0  0  0  0  0
    2.1945    1.3601   -1.5973 h   0  0  0  0  0  0  0  0  0  0  0  0
   -0.1625    0.1317   -1.9481 h   0  0  0  0  0  0  0  0  0  0  0  0
    1.8743   -1.5497    0.9300 h   0  0  0  0  0  0  0  0  0  0  0  0
    1.1104   -0.4266    2.0368 h   0  0  0  0  0  0  0  0  0  0  0  0
    2.1699   -1.3131   -1.4256 h   0  0  0  0  0  0  0  0  0  0  0  0
    0.2322   -2.6942   -0.4403 h   0  0  0  0  0  0  0  0  0  0  0  0
   -1.3803   -1.9899   -0.6767 h   0  0  0  0  0  0  0  0  0  0  0  0
    3.7891    0.5156    1.7735 h   0  0  0  0  0  0  0  0  0  0  0  0
    3.9062    1.7254    0.4040 h   0  0  0  0  0  0  0  0  0  0  0  0
   -3.5269    0.9033   -1.6516 h   0  0  0  0  0  0  0  0  0  0  0  0
   -1.8249    1.5318   -1.7739 h   0  0  0  0  0  0  0  0  0  0  0  0
   -1.1907   -3.3873    1.2102 h   0  0  0  0  0  0  0  0  0  0  0  0
   -2.9825   -1.2918    1.0963 h   0  0  0  0  0  0  0  0  0  0  0  0
   -3.6815    0.2577    1.5319 h   0  0  0  0  0  0  0  0  0  0  0  0
   -4.2172   -0.5515    0.0566 h   0  0  0  0  0  0  0  0  0  0  0  0
  1  2  1  0  0  0  0
  2  3  1  0  0  0  0
  3  4  1  0  0  0  0
  4  5  1  0  0  0  0
  1  6  1  0  0  0  0
  5  6  1  0  0  0  0
  1  7  1  0  0  0  0
  5  8  1  0  0  0  0
  7  8  1  0  0  0  0
  6  9  1  0  0  0  0
  1 10  1  0  0  0  0
  8 11  2  0  0  0  0
  2 12  1  0  0  0  0
 12 13  2  0  0  0  0
  2 14  1  0  0  0  0
 10 15  1  0  0  0  0
 12 16  1  0  0  0  0
  3 17  1  0  0  0  0
  3 18  1  0  0  0  0
  4 19  1  0  0  0  0
  4 20  1  0  0  0  0
  5 21  1  0  0  0  0
  6 22  1  0  0  0  0
  7 23  1  0  0  0  0
  7 24  1  0  0  0  0
  9 25  1  0  0  0  0
 10 26  1  0  0  0  0
 10 27  1  0  0  0  0
 11 28  1  0  0  0  0
 11 29  1  0  0  0  0
 13 30  1  0  0  0  0
 13 31  1  0  0  0  0
 15 32  1  0  0  0  0
 16 33  1  0  0  0  0
 16 34  1  0  0  0  0
 16 35  1  0  0  0  0
M  END
