 xtb: 6.7.1 (edcfbbe)
          08092615283D

 35 36  0     0  0            999 V2000
   -0.0214   -0.5626    0.2989 c   0  0  0  0  0  0  0  0  0  0  0  0
   -0.9960    0.5795    0.6958 c   0  0  0  0  0  0  0  0  0  0  0  0
   -0.3218    1.9631    0.5824 c   0  0  0  0  0  0  0  0  0  0  0  0
    0.5853    2.1421   -0.6345 c   0  0  0  0  0  0  0  0  0  0  0  0
    1.4612    0.9033   -0.8247 c   0  0  0  0  0  0  0  0  0  0  0  0
    0.5647   -0.3063   -1.1039 c   0  0  0  0  0  0  0  0  0  0  0  0
    1.2399   -0.4768    1.1785 c   0  0  0  0  0  0  0  0  0  0  0  0
    2.1126    0.5378    0.4841 c   0  0  0  0  0  0  0  0  0  0  0  0
    1.3692   -1.3551   -1.5879 o   0  0  0  0  0  0  0  0  0  0  0  0
   -0.7597   -1.9057    0.4207 c   0  0  0  0  0  0  0  0  0  0  0  0
    3.2491    1.0240    0.9458 c   0  0  0  0  0  0  0  0  0  0  0  0
   -2.3425    0.5296   -0.0005 c   0  0  0  0  0  0  0  0  0  0  0  0
   -2.5777    0.9262   -1.2416 c   0  0  0  0  0  0  0  0  0  0  0  0
   -1.2097    0.4276    1.7619 h   0  0  0  0  0  0  0  0  0  0  0  0
   -0.0036   -3.0437    0.0702 o   0  0  0  0  0  0  0  0  0  0  0  0
   -3.4781    0.0667    0.8691 c   0  0  0  0  0  0  0  0  0  0  0  0
   -1.0984    2.7304    0.5791 h   0  0  0  0  0  0  0  0  0  0  0  0
    0.2870    2.1176    1.4756 h   0  0  0  0  0  0  0  0  0  0  0  0
    0.0026    2.3161   -1.5392 h   0  0  0  0  0  0  0  0  0  0  0  0
    1.2182    3.0175   -0.4760 h   0  0  0  0  0  0  0  0  0  0  0  0
    2.1878    1.0520   -1.6239 h   0  0  0  0  0  0  0  0  0  0  0  0
   -0.2249   -0.0890   -1.8342 h   0  0  0  0  0  0  0  0  0  0  0  0
    1.7677   -1.4349    1.1943 h   0  0  0  0  0  0  0  0  0  0  0  0
    1.0171   -0.2023    2.2107 h   0  0  0  0  0  0  0  0  0  0  0  0
    0.8966   -2.1879   -1.4391 h   0  0  0  0  0  0  0  0  0  0  0  0
   -1.6092   -1.9117   -0.2670 h   0  0  0  0  0  0  0  0  0  0  0  0
   -1.1393   -2.0140    1.4475 h   0  0  0  0  0  0  0  0  0  0  0  0
    3.6498    0.7275    1.9010 h   0  0  0  0  0  0  0  0  0  0  0  0
    3.8282    1.7361    0.3837 h   0  0  0  0  0  0  0  0  0  0  0  0
   -3.5713    0.8838   -1.6568 h   0  0  0  0  0  0  0  0  0  0  0  0
   -1.8207    1.3132   -1.8973 h   0  0  0  0  0  0  0  0  0  0  0  0
    0.7453   -3.1224    0.6729 h   0  0  0  0  0  0  0  0  0  0  0  0
   -3.6254    0.7744    1.6856 h   0  0  0  0  0  0  0  0  0  0  0  0
   -4.4027    0.0008    0.3018 h   0  0  0  0  0  0  0  0  0  0  0  0
   -3.2688   -0.9061    1.3094 h   0  0  0  0  0  0  0  0  0  0  0  0
  1  2  1  0  0  0  0
  2  3  1  0  0  0  0
  3  4  1  0  0  0  0
  4  5  1  0  0  0  0
  1  6  1  0  0  0  0
  5  6  1  0  0  0  0
  1  7  1  0  0  0  0
  5  8  1  0  0  0  0
  7  8  1  0  0  0  0
  6  9  1  0  0  0  0
  1 10  1  0  0  0  0
  8 11  2  0  0  0  0
  2 12  1  0  0  0  0
 12 13  2  0  0  0  0
  2 14  1  0  0  0  0
 10 15  1  0  0  0  0
 12 16  1  0  0  0  0
  3 17  1  0  0  0  0
  3 18  1  0  0  0  0
  4 19  1  0  0  0  0
  4 20  1  0  0  0  0
  5 21  1  0  0  0  0
  6 22  1  0  0  0  0
  7 23  1  0  0  0  0
  7 24  1  0  0  0  0
  9 25  1  0  0  0  0
 10 26  1  0  0  0  0
 10 27  1  0  0  0  0
 11 28  1  0  0  0  0
 11 29  1  0  0  0  0
 13 30  1  0  0  0  0
 13 31  1  0  0  0  0
 15 32  1  0  0  0  0
 16 33  1  0  0  0  0
 16 34  1  0  0  0  0
 16 35  1  0  0  0  0
M  END
