 xtb: 6.7.1 (edcfbbe)
          08092617483D

 35 36  0     0  0            999 V2000
   -0.0779   -0.7840   -0.2880 c   0  0  0  0  0  0  0  0  0  0  0  0
    0.5290    0.5071   -0.8974 c   0  0  0  0  0  0  0  0  0  0  0  0
   -0.4606    1.6856   -0.7694 c   0  0  0  0  0  0  0  0  0  0  0  0
   -1.2461    1.7312    0.5398 c   0  0  0  0  0  0  0  0  0  0  0  0
   -1.8006    0.3466    0.8872 c   0  0  0  0  0  0  0  0  0  0  0  0
   -0.6147   -0.5898    1.1458 c   0  0  0  0  0  0  0  0  0  0  0  0
   -1.3907   -1.0993   -1.0321 c   0  0  0  0  0  0  0  0  0  0  0  0
   -2.4388   -0.2784   -0.3224 c   0  0  0  0  0  0  0  0  0  0  0  0
    0.2727   -0.0975    2.1042 o   0  0  0  0  0  0  0  0  0  0  0  0
    0.8946   -1.9648   -0.3604 c   0  0  0  0  0  0  0  0  0  0  0  0
   -3.6938   -0.1307   -0.7043 c   0  0  0  0  0  0  0  0  0  0  0  0
    1.9314    0.8682   -0.4450 c   0  0  0  0  0  0  0  0  0  0  0  0
    2.2230    1.5502    0.6506 c   0  0  0  0  0  0  0  0  0  0  0  0
    0.6208    0.2961   -1.9719 h   0  0  0  0  0  0  0  0  0  0  0  0
    1.9618   -1.7696    0.5451 o   0  0  0  0  0  0  0  0  0  0  0  0
    3.0137    0.5063   -1.4240 c   0  0  0  0  0  0  0  0  0  0  0  0
    0.0903    2.6193   -0.8970 h   0  0  0  0  0  0  0  0  0  0  0  0
   -1.1814    1.6157   -1.5877 h   0  0  0  0  0  0  0  0  0  0  0  0
   -0.6162    2.0559    1.3664 h   0  0  0  0  0  0  0  0  0  0  0  0
   -2.0681    2.4422    0.4348 h   0  0  0  0  0  0  0  0  0  0  0  0
   -2.4739    0.4144    1.7425 h   0  0  0  0  0  0  0  0  0  0  0  0
   -1.0033   -1.5700    1.4849 h   0  0  0  0  0  0  0  0  0  0  0  0
   -1.3375   -0.8707   -2.0970 h   0  0  0  0  0  0  0  0  0  0  0  0
   -1.6338   -2.1616   -0.9370 h   0  0  0  0  0  0  0  0  0  0  0  0
    1.1315   -0.5040    1.9268 h   0  0  0  0  0  0  0  0  0  0  0  0
    1.2686   -2.0764   -1.3886 h   0  0  0  0  0  0  0  0  0  0  0  0
    0.3519   -2.8865   -0.0981 h   0  0  0  0  0  0  0  0  0  0  0  0
   -4.0756   -0.5967   -1.5974 h   0  0  0  0  0  0  0  0  0  0  0  0
   -4.3900    0.4633   -0.1377 h   0  0  0  0  0  0  0  0  0  0  0  0
    3.2426    1.8087    0.8863 h   0  0  0  0  0  0  0  0  0  0  0  0
    1.4839    1.8556    1.3660 h   0  0  0  0  0  0  0  0  0  0  0  0
    2.5768   -2.5059    0.4746 h   0  0  0  0  0  0  0  0  0  0  0  0
    2.9860   -0.5524   -1.6722 h   0  0  0  0  0  0  0  0  0  0  0  0
    2.8778    1.0671   -2.3501 h   0  0  0  0  0  0  0  0  0  0  0  0
    3.9950    0.7405   -1.0201 h   0  0  0  0  0  0  0  0  0  0  0  0
  1  2  1  0  0  0  0
  2  3  1  0  0  0  0
  3  4  1  0  0  0  0
  4  5  1  0  0  0  0
  1  6  1  0  0  0  0
  5  6  1  0  0  0  0
  1  7  1  0  0  0  0
  5  8  1  0  0  0  0
  7  8  1  0  0  0  0
  6  9  1  0  0  0  0
  1 10  1  0  0  0  0
  8 11  2  0  0  0  0
  2 12  1  0  0  0  0
 12 13  2  0  0  0  0
  2 14  1  0  0  0  0
 10 15  1  0  0  0  0
 12 16  1  0  0  0  0
  3 17  1  0  0  0  0
  3 18  1  0  0  0  0
  4 19  1  0  0  0  0
  4 20  1  0  0  0  0
  5 21  1  0  0  0  0
  6 22  1  0  0  0  0
  7 23  1  0  0  0  0
  7 24  1  0  0  0  0
  9 25  1  0  0  0  0
 10 26  1  0  0  0  0
 10 27  1  0  0  0  0
 11 28  1  0  0  0  0
 11 29  1  0  0  0  0
 13 30  1  0  0  0  0
 13 31  1  0  0  0  0
 15 32  1  0  0  0  0
 16 33  1  0  0  0  0
 16 34  1  0  0  0  0
 16 35  1  0  0  0  0
M  END
