 xtb: 6.7.1 (edcfbbe)
          08092616283D

 35 36  0     0  0            999 V2000
    0.1328   -0.5785    0.4102 c   0  0  0  0  0  0  0  0  0  0  0  0
   -0.9199    0.5165    0.7299 c   0  0  0  0  0  0  0  0  0  0  0  0
   -0.3267    1.9278    0.5243 c   0  0  0  0  0  0  0  0  0  0  0  0
    0.5888    2.0853   -0.6915 c   0  0  0  0  0  0  0  0  0  0  0  0
    1.5395    0.8901   -0.8085 c   0  0  0  0  0  0  0  0  0  0  0  0
    0.6973   -0.3691   -1.0097 c   0  0  0  0  0  0  0  0  0  0  0  0
    1.3812   -0.3508    1.2846 c   0  0  0  0  0  0  0  0  0  0  0  0
    2.2122    0.6429    0.5163 c   0  0  0  0  0  0  0  0  0  0  0  0
    1.5271   -1.4333   -1.4381 o   0  0  0  0  0  0  0  0  0  0  0  0
   -0.4351   -1.9932    0.5996 c   0  0  0  0  0  0  0  0  0  0  0  0
    3.3345    1.2023    0.9294 c   0  0  0  0  0  0  0  0  0  0  0  0
   -2.2573    0.3309    0.0380 c   0  0  0  0  0  0  0  0  0  0  0  0
   -2.5190    0.6603   -1.2201 c   0  0  0  0  0  0  0  0  0  0  0  0
   -1.1266    0.4219    1.8029 h   0  0  0  0  0  0  0  0  0  0  0  0
   -1.2199   -2.4380   -0.4891 o   0  0  0  0  0  0  0  0  0  0  0  0
   -3.3569   -0.1890    0.9248 c   0  0  0  0  0  0  0  0  0  0  0  0
   -1.1456    2.6469    0.4587 h   0  0  0  0  0  0  0  0  0  0  0  0
    0.2577    2.1774    1.4116 h   0  0  0  0  0  0  0  0  0  0  0  0
    0.0121    2.1758   -1.6126 h   0  0  0  0  0  0  0  0  0  0  0  0
    1.1703    3.0019   -0.5763 h   0  0  0  0  0  0  0  0  0  0  0  0
    2.2529    1.0327   -1.6215 h   0  0  0  0  0  0  0  0  0  0  0  0
   -0.0963   -0.2207   -1.7499 h   0  0  0  0  0  0  0  0  0  0  0  0
    1.9425   -1.2826    1.3839 h   0  0  0  0  0  0  0  0  0  0  0  0
    1.1347   -0.0020    2.2873 h   0  0  0  0  0  0  0  0  0  0  0  0
    0.9672   -2.2155   -1.5291 h   0  0  0  0  0  0  0  0  0  0  0  0
   -1.0068   -2.0448    1.5361 h   0  0  0  0  0  0  0  0  0  0  0  0
    0.3829   -2.7154    0.6717 h   0  0  0  0  0  0  0  0  0  0  0  0
    3.7521    0.9887    1.8992 h   0  0  0  0  0  0  0  0  0  0  0  0
    3.8836    1.8926    0.3118 h   0  0  0  0  0  0  0  0  0  0  0  0
   -3.5037    0.5218   -1.6374 h   0  0  0  0  0  0  0  0  0  0  0  0
   -1.7924    1.0875   -1.8858 h   0  0  0  0  0  0  0  0  0  0  0  0
   -1.9400   -1.8036   -0.6221 h   0  0  0  0  0  0  0  0  0  0  0  0
   -3.0714   -1.1142    1.4223 h   0  0  0  0  0  0  0  0  0  0  0  0
   -3.5717    0.5453    1.7020 h   0  0  0  0  0  0  0  0  0  0  0  0
   -4.2686   -0.3639    0.3585 h   0  0  0  0  0  0  0  0  0  0  0  0
  1  2  1  0  0  0  0
  2  3  1  0  0  0  0
  3  4  1  0  0  0  0
  4  5  1  0  0  0  0
  1  6  1  0  0  0  0
  5  6  1  0  0  0  0
  1  7  1  0  0  0  0
  5  8  1  0  0  0  0
  7  8  1  0  0  0  0
  6  9  1  0  0  0  0
  1 10  1  0  0  0  0
  8 11  2  0  0  0  0
  2 12  1  0  0  0  0
 12 13  2  0  0  0  0
  2 14  1  0  0  0  0
 10 15  1  0  0  0  0
 12 16  1  0  0  0  0
  3 17  1  0  0  0  0
  3 18  1  0  0  0  0
  4 19  1  0  0  0  0
  4 20  1  0  0  0  0
  5 21  1  0  0  0  0
  6 22  1  0  0  0  0
  7 23  1  0  0  0  0
  7 24  1  0  0  0  0
  9 25  1  0  0  0  0
 10 26  1  0  0  0  0
 10 27  1  0  0  0  0
 11 28  1  0  0  0  0
 11 29  1  0  0  0  0
 13 30  1  0  0  0  0
 13 31  1  0  0  0  0
 15 32  1  0  0  0  0
 16 33  1  0  0  0  0
 16 34  1  0  0  0  0
 16 35  1  0  0  0  0
M  END
