 xtb: 6.7.1 (edcfbbe)
          08092612003D

 54 57  0     0  0            999 V2000
    1.2953    1.5164    1.9423 c   0  0  0  0  0  0  0  0  0  0  0  0
    2.6872    1.3322    1.3521 c   0  0  0  0  0  0  0  0  0  0  0  0
    2.7345    0.6593   -0.0345 c   0  0  0  0  0  0  0  0  0  0  0  0
    1.6876   -0.5108   -0.1705 c   0  0  0  0  0  0  0  0  0  0  0  0
    0.2902   -0.3031    0.5340 c   0  0  0  0  0  0  0  0  0  0  0  0
    0.5476    0.1882    1.9715 c   0  0  0  0  0  0  0  0  0  0  0  0
    1.3905   -0.8023   -1.6473 c   0  0  0  0  0  0  0  0  0  0  0  0
    0.6013   -2.0984   -1.7942 c   0  0  0  0  0  0  0  0  0  0  0  0
   -0.7022   -2.0873   -0.9907 c   0  0  0  0  0  0  0  0  0  0  0  0
   -0.5543   -1.6530    0.4966 c   0  0  0  0  0  0  0  0  0  0  0  0
   -0.7979    0.6863   -0.0042 c   0  0  0  0  0  0  0  0  0  0  0  0
   -1.9421   -1.1812    0.9521 c   0  0  0  0  0  0  0  0  0  0  0  0
   -2.0497    0.1671    0.3463 c   0  0  0  0  0  0  0  0  0  0  0  0
   -3.2631    0.7979    0.1381 c   0  0  0  0  0  0  0  0  0  0  0  0
   -3.2629    2.0489   -0.4562 c   0  0  0  0  0  0  0  0  0  0  0  0
   -2.0529    2.6002   -0.8009 c   0  0  0  0  0  0  0  0  0  0  0  0
   -0.8255    1.9640   -0.5783 c   0  0  0  0  0  0  0  0  0  0  0  0
    0.2217    2.7327   -0.9506 o   0  0  0  0  0  0  0  0  0  0  0  0
   -4.4128    0.1574    0.5283 o   0  0  0  0  0  0  0  0  0  0  0  0
    2.4925    1.5914   -1.0859 o   0  0  0  0  0  0  0  0  0  0  0  0
    4.2018    0.2294   -0.2607 c   0  0  0  0  0  0  0  0  0  0  0  0
    2.4188   -1.7265    0.4284 c   0  0  0  0  0  0  0  0  0  0  0  0
   -1.3953   -3.4405   -1.1638 c   0  0  0  0  0  0  0  0  0  0  0  0
   -0.1902   -2.8190    1.4325 c   0  0  0  0  0  0  0  0  0  0  0  0
    1.3974    1.9018    2.9600 h   0  0  0  0  0  0  0  0  0  0  0  0
    0.7297    2.2523    1.3735 h   0  0  0  0  0  0  0  0  0  0  0  0
    3.2712    0.7187    2.0413 h   0  0  0  0  0  0  0  0  0  0  0  0
    3.1882    2.3030    1.2825 h   0  0  0  0  0  0  0  0  0  0  0  0
   -0.3985    0.3238    2.4947 h   0  0  0  0  0  0  0  0  0  0  0  0
    1.1412   -0.5358    2.5305 h   0  0  0  0  0  0  0  0  0  0  0  0
    0.8121    0.0200   -2.0699 h   0  0  0  0  0  0  0  0  0  0  0  0
    2.3200   -0.8766   -2.2144 h   0  0  0  0  0  0  0  0  0  0  0  0
    0.3466   -2.2340   -2.8485 h   0  0  0  0  0  0  0  0  0  0  0  0
    1.2181   -2.9514   -1.5093 h   0  0  0  0  0  0  0  0  0  0  0  0
   -1.3439   -1.3300   -1.4544 h   0  0  0  0  0  0  0  0  0  0  0  0
   -2.0026   -1.1228    2.0416 h   0  0  0  0  0  0  0  0  0  0  0  0
   -2.7470   -1.8342    0.6189 h   0  0  0  0  0  0  0  0  0  0  0  0
   -4.1867    2.5787   -0.6436 h   0  0  0  0  0  0  0  0  0  0  0  0
   -2.0040    3.5763   -1.2577 h   0  0  0  0  0  0  0  0  0  0  0  0
    1.0507    2.2089   -0.9723 h   0  0  0  0  0  0  0  0  0  0  0  0
   -5.1668    0.7154    0.3075 h   0  0  0  0  0  0  0  0  0  0  0  0
    3.1237    2.3173   -1.0148 h   0  0  0  0  0  0  0  0  0  0  0  0
    4.8148    1.1322   -0.2712 h   0  0  0  0  0  0  0  0  0  0  0  0
    4.5904   -0.4150    0.5186 h   0  0  0  0  0  0  0  0  0  0  0  0
    4.3140   -0.2566   -1.2262 h   0  0  0  0  0  0  0  0  0  0  0  0
    2.7843   -1.5173    1.4292 h   0  0  0  0  0  0  0  0  0  0  0  0
    1.7889   -2.5923    0.4758 h   0  0  0  0  0  0  0  0  0  0  0  0
    3.2618   -1.9891   -0.2029 h   0  0  0  0  0  0  0  0  0  0  0  0
   -2.3233   -3.4931   -0.6020 h   0  0  0  0  0  0  0  0  0  0  0  0
   -1.6318   -3.5926   -2.2150 h   0  0  0  0  0  0  0  0  0  0  0  0
   -0.7557   -4.2606   -0.8465 h   0  0  0  0  0  0  0  0  0  0  0  0
   -1.1131   -3.2799    1.7815 h   0  0  0  0  0  0  0  0  0  0  0  0
    0.3770   -3.6118    0.9538 h   0  0  0  0  0  0  0  0  0  0  0  0
    0.3524   -2.4793    2.3089 h   0  0  0  0  0  0  0  0  0  0  0  0
  1  2  1  0  0  0  0
  2  3  1  0  0  0  0
  3  4  1  0  0  0  0
  4  5  1  0  0  0  0
  1  6  1  0  0  0  0
  5  6  1  0  0  0  0
  4  7  1  0  0  0  0
  7  8  1  0  0  0  0
  8  9  1  0  0  0  0
  5 10  1  0  0  0  0
  9 10  1  0  0  0  0
  5 11  1  0  0  0  0
 10 12  1  0  0  0  0
 11 13  4  0  0  0  0
 12 13  1  0  0  0  0
 13 14  4  0  0  0  0
 14 15  4  0  0  0  0
 15 16  4  0  0  0  0
 11 17  4  0  0  0  0
 16 17  4  0  0  0  0
 17 18  1  0  0  0  0
 14 19  1  0  0  0  0
  3 20  1  0  0  0  0
  3 21  1  0  0  0  0
  4 22  1  0  0  0  0
  9 23  1  0  0  0  0
 10 24  1  0  0  0  0
  1 25  1  0  0  0  0
  1 26  1  0  0  0  0
  2 27  1  0  0  0  0
  2 28  1  0  0  0  0
  6 29  1  0  0  0  0
  6 30  1  0  0  0  0
  7 31  1  0  0  0  0
  7 32  1  0  0  0  0
  8 33  1  0  0  0  0
  8 34  1  0  0  0  0
  9 35  1  0  0  0  0
 12 36  1  0  0  0  0
 12 37  1  0  0  0  0
 15 38  1  0  0  0  0
 16 39  1  0  0  0  0
 18 40  1  0  0  0  0
 19 41  1  0  0  0  0
 20 42  1  0  0  0  0
 21 43  1  0  0  0  0
 21 44  1  0  0  0  0
 21 45  1  0  0  0  0
 22 46  1  0  0  0  0
 22 47  1  0  0  0  0
 22 48  1  0  0  0  0
 23 49  1  0  0  0  0
 23 50  1  0  0  0  0
 23 51  1  0  0  0  0
 24 52  1  0  0  0  0
 24 53  1  0  0  0  0
 24 54  1  0  0  0  0
M  END
