 xtb: 6.7.1 (edcfbbe)
          08092622183D

 50 55  0     0  0            999 V2000
   -0.4348   -0.5628   -2.7146 c   0  0  0  0  0  0  0  0  0  0  0  0
    0.7048    0.4279   -2.4599 c   0  0  0  0  0  0  0  0  0  0  0  0
   -2.4543    3.3096    0.5577 c   0  0  0  0  0  0  0  0  0  0  0  0
   -3.5340    2.8655   -0.1878 c   0  0  0  0  0  0  0  0  0  0  0  0
   -3.4952    1.6107   -0.7546 c   0  0  0  0  0  0  0  0  0  0  0  0
   -2.3876    0.7756   -0.5804 c   0  0  0  0  0  0  0  0  0  0  0  0
   -1.3083    1.1992    0.2041 c   0  0  0  0  0  0  0  0  0  0  0  0
   -1.3670    2.4762    0.7497 c   0  0  0  0  0  0  0  0  0  0  0  0
   -2.3858   -0.4708   -1.1493 n   0  0  0  0  0  0  0  0  0  0  0  0
   -1.1403   -1.1186   -1.4483 c   0  0  0  0  0  0  0  0  0  0  0  0
   -0.2058   -1.0999   -0.2113 c   0  0  0  0  0  0  0  0  0  0  0  0
   -0.1246    0.2952    0.4905 c   0  0  0  0  0  0  0  0  0  0  0  0
    1.2030   -1.3714   -0.7698 c   0  0  0  0  0  0  0  0  0  0  0  0
    1.5925    0.0348   -1.2568 c   0  0  0  0  0  0  0  0  0  0  0  0
    1.1904    0.8625   -0.0539 c   0  0  0  0  0  0  0  0  0  0  0  0
    3.0502    0.2874   -1.5133 c   0  0  0  0  0  0  0  0  0  0  0  0
    3.8065    1.0253   -0.7107 c   0  0  0  0  0  0  0  0  0  0  0  0
    3.3429    1.5900    0.6081 c   0  0  0  0  0  0  0  0  0  0  0  0
    2.2105    0.7510    1.0502 n   0  0  0  0  0  0  0  0  0  0  0  0
    1.3952    1.1628    2.2112 c   0  0  0  0  0  0  0  0  0  0  0  0
    0.1604    0.2722    2.0206 c   0  0  0  0  0  0  0  0  0  0  0  0
    2.7090   -0.4736    1.3282 o   0  0  0  0  0  0  0  0  0  0  0  0
    1.1144    1.9258   -0.2849 h   0  0  0  0  0  0  0  0  0  0  0  0
   -0.7324   -2.1808    0.7067 c   0  0  0  0  0  0  0  0  0  0  0  0
   -1.6011   -2.0285    1.5363 o   0  0  0  0  0  0  0  0  0  0  0  0
   -0.1788   -3.3616    0.4434 o   0  0  0  0  0  0  0  0  0  0  0  0
   -0.6299   -4.4769    1.2121 c   0  0  0  0  0  0  0  0  0  0  0  0
   -0.0445   -1.4075   -3.2827 h   0  0  0  0  0  0  0  0  0  0  0  0
   -1.1884   -0.0780   -3.3389 h   0  0  0  0  0  0  0  0  0  0  0  0
    1.3158    0.4835   -3.3628 h   0  0  0  0  0  0  0  0  0  0  0  0
    0.2918    1.4234   -2.2867 h   0  0  0  0  0  0  0  0  0  0  0  0
   -2.4611    4.2958    0.9967 h   0  0  0  0  0  0  0  0  0  0  0  0
   -4.3963    3.4993   -0.3337 h   0  0  0  0  0  0  0  0  0  0  0  0
   -4.3263    1.2525   -1.3460 h   0  0  0  0  0  0  0  0  0  0  0  0
   -0.5502    2.8414    1.3505 h   0  0  0  0  0  0  0  0  0  0  0  0
   -3.1369   -0.6514   -1.7986 h   0  0  0  0  0  0  0  0  0  0  0  0
   -1.3811   -2.1708   -1.6505 h   0  0  0  0  0  0  0  0  0  0  0  0
    1.8843   -1.6714    0.0259 h   0  0  0  0  0  0  0  0  0  0  0  0
    1.2042   -2.1281   -1.5481 h   0  0  0  0  0  0  0  0  0  0  0  0
    3.4669   -0.1421   -2.4124 h   0  0  0  0  0  0  0  0  0  0  0  0
    4.8451    1.2037   -0.9463 h   0  0  0  0  0  0  0  0  0  0  0  0
    3.0490    2.6408    0.5290 h   0  0  0  0  0  0  0  0  0  0  0  0
    4.1375    1.4862    1.3500 h   0  0  0  0  0  0  0  0  0  0  0  0
    1.9396    0.9253    3.1241 h   0  0  0  0  0  0  0  0  0  0  0  0
    1.1730    2.2281    2.1667 h   0  0  0  0  0  0  0  0  0  0  0  0
   -0.6960    0.6074    2.6003 h   0  0  0  0  0  0  0  0  0  0  0  0
    0.4287   -0.7338    2.3402 h   0  0  0  0  0  0  0  0  0  0  0  0
   -0.2060   -5.3567    0.7361 h   0  0  0  0  0  0  0  0  0  0  0  0
   -0.2756   -4.3882    2.2403 h   0  0  0  0  0  0  0  0  0  0  0  0
   -1.7207   -4.5158    1.2140 h   0  0  0  0  0  0  0  0  0  0  0  0
  1  2  1  0  0  0  0
  3  4  4  0  0  0  0
  4  5  4  0  0  0  0
  5  6  4  0  0  0  0
  6  7  4  0  0  0  0
  3  8  4  0  0  0  0
  7  8  4  0  0  0  0
  6  9  1  0  0  0  0
  1 10  1  0  0  0  0
  9 10  1  0  0  0  0
 10 11  1  0  0  0  0
  7 12  1  0  0  0  0
 11 12  1  0  0  0  0
 11 13  1  0  0  0  0
  2 14  1  0  0  0  0
 13 14  1  0  0  0  0
 12 15  1  0  0  0  0
 14 15  1  0  0  0  0
 14 16  1  0  0  0  0
 16 17  2  0  0  0  0
 17 18  1  0  0  0  0
 15 19  1  0  0  0  0
 18 19  1  0  0  0  0
 19 20  1  0  0  0  0
 12 21  1  0  0  0  0
 20 21  1  0  0  0  0
 19 22  1  0  0  0  0
 15 23  1  0  0  0  0
 11 24  1  0  0  0  0
 24 25  2  0  0  0  0
 24 26  1  0  0  0  0
 26 27  1  0  0  0  0
  1 28  1  0  0  0  0
  1 29  1  0  0  0  0
  2 30  1  0  0  0  0
  2 31  1  0  0  0  0
  3 32  1  0  0  0  0
  4 33  1  0  0  0  0
  5 34  1  0  0  0  0
  8 35  1  0  0  0  0
  9 36  1  0  0  0  0
 10 37  1  0  0  0  0
 13 38  1  0  0  0  0
 13 39  1  0  0  0  0
 16 40  1  0  0  0  0
 17 41  1  0  0  0  0
 18 42  1  0  0  0  0
 18 43  1  0  0  0  0
 20 44  1  0  0  0  0
 20 45  1  0  0  0  0
 21 46  1  0  0  0  0
 21 47  1  0  0  0  0
 27 48  1  0  0  0  0
 27 49  1  0  0  0  0
 27 50  1  0  0  0  0
M  END
