 xtb: 6.7.1 (edcfbbe)
          08092616283D

 35 36  0     0  0            999 V2000
    0.0910   -0.6503    0.0922 c   0  0  0  0  0  0  0  0  0  0  0  0
   -0.9603    0.3100    0.7153 c   0  0  0  0  0  0  0  0  0  0  0  0
   -0.3616    1.7163    0.9001 c   0  0  0  0  0  0  0  0  0  0  0  0
    0.4743    2.2094   -0.2818 c   0  0  0  0  0  0  0  0  0  0  0  0
    1.4292    1.1107   -0.7606 c   0  0  0  0  0  0  0  0  0  0  0  0
    0.6028   -0.0838   -1.2480 c   0  0  0  0  0  0  0  0  0  0  0  0
    1.3732   -0.6262    0.9537 c   0  0  0  0  0  0  0  0  0  0  0  0
    2.1782    0.5298    0.4121 c   0  0  0  0  0  0  0  0  0  0  0  0
    1.3748   -1.0035   -1.9957 o   0  0  0  0  0  0  0  0  0  0  0  0
   -0.4632   -2.0720   -0.0582 c   0  0  0  0  0  0  0  0  0  0  0  0
    3.3407    0.9510    0.8764 c   0  0  0  0  0  0  0  0  0  0  0  0
   -2.3118    0.3003    0.0228 c   0  0  0  0  0  0  0  0  0  0  0  0
   -3.2425   -0.5516    0.4330 c   0  0  0  0  0  0  0  0  0  0  0  0
   -1.1555   -0.0915    1.7174 h   0  0  0  0  0  0  0  0  0  0  0  0
   -0.8222   -2.6665    1.1721 o   0  0  0  0  0  0  0  0  0  0  0  0
   -2.6247    1.2794   -1.0706 c   0  0  0  0  0  0  0  0  0  0  0  0
   -1.1651    2.4238    1.1104 h   0  0  0  0  0  0  0  0  0  0  0  0
    0.2820    1.7010    1.7820 h   0  0  0  0  0  0  0  0  0  0  0  0
   -0.1588    2.5106   -1.1157 h   0  0  0  0  0  0  0  0  0  0  0  0
    1.0523    3.0812    0.0322 h   0  0  0  0  0  0  0  0  0  0  0  0
    2.0930    1.4948   -1.5386 h   0  0  0  0  0  0  0  0  0  0  0  0
   -0.2051    0.1937   -1.9230 h   0  0  0  0  0  0  0  0  0  0  0  0
    1.9330   -1.5595    0.8338 h   0  0  0  0  0  0  0  0  0  0  0  0
    1.1609   -0.5048    2.0165 h   0  0  0  0  0  0  0  0  0  0  0  0
    2.1865   -1.1835   -1.5029 h   0  0  0  0  0  0  0  0  0  0  0  0
    0.2759   -2.6956   -0.5795 h   0  0  0  0  0  0  0  0  0  0  0  0
   -1.3763   -2.0572   -0.6563 h   0  0  0  0  0  0  0  0  0  0  0  0
    3.8135    0.4917    1.7289 h   0  0  0  0  0  0  0  0  0  0  0  0
    3.8639    1.7775    0.4261 h   0  0  0  0  0  0  0  0  0  0  0  0
   -4.2184   -0.5908   -0.0229 h   0  0  0  0  0  0  0  0  0  0  0  0
   -3.0621   -1.2617    1.2225 h   0  0  0  0  0  0  0  0  0  0  0  0
   -0.0367   -2.6946    1.7338 h   0  0  0  0  0  0  0  0  0  0  0  0
   -2.4714    2.3026   -0.7346 h   0  0  0  0  0  0  0  0  0  0  0  0
   -2.0029    1.1147   -1.9480 h   0  0  0  0  0  0  0  0  0  0  0  0
   -3.6643    1.1729   -1.3721 h   0  0  0  0  0  0  0  0  0  0  0  0
  1  2  1  0  0  0  0
  2  3  1  0  0  0  0
  3  4  1  0  0  0  0
  4  5  1  0  0  0  0
  1  6  1  0  0  0  0
  5  6  1  0  0  0  0
  1  7  1  0  0  0  0
  5  8  1  0  0  0  0
  7  8  1  0  0  0  0
  6  9  1  0  0  0  0
  1 10  1  0  0  0  0
  8 11  2  0  0  0  0
  2 12  1  0  0  0  0
 12 13  2  0  0  0  0
  2 14  1  0  0  0  0
 10 15  1  0  0  0  0
 12 16  1  0  0  0  0
  3 17  1  0  0  0  0
  3 18  1  0  0  0  0
  4 19  1  0  0  0  0
  4 20  1  0  0  0  0
  5 21  1  0  0  0  0
  6 22  1  0  0  0  0
  7 23  1  0  0  0  0
  7 24  1  0  0  0  0
  9 25  1  0  0  0  0
 10 26  1  0  0  0  0
 10 27  1  0  0  0  0
 11 28  1  0  0  0  0
 11 29  1  0  0  0  0
 13 30  1  0  0  0  0
 13 31  1  0  0  0  0
 15 32  1  0  0  0  0
 16 33  1  0  0  0  0
 16 34  1  0  0  0  0
 16 35  1  0  0  0  0
M  END
