 xtb: 6.7.1 (edcfbbe)
          08092620553D

 50 55  0     0  0            999 V2000
    0.0213    0.5269    2.5684 c   0  0  0  0  0  0  0  0  0  0  0  0
    1.5216    0.7759    2.4131 c   0  0  0  0  0  0  0  0  0  0  0  0
   -2.2443   -3.1974   -0.2684 c   0  0  0  0  0  0  0  0  0  0  0  0
   -3.2986   -2.7444    0.5075 c   0  0  0  0  0  0  0  0  0  0  0  0
   -3.2484   -1.4812    1.0589 c   0  0  0  0  0  0  0  0  0  0  0  0
   -2.1633   -0.6365    0.8211 c   0  0  0  0  0  0  0  0  0  0  0  0
   -1.1266   -1.0664   -0.0213 c   0  0  0  0  0  0  0  0  0  0  0  0
   -1.1743   -2.3592   -0.5263 c   0  0  0  0  0  0  0  0  0  0  0  0
   -2.1454    0.6203    1.3995 n   0  0  0  0  0  0  0  0  0  0  0  0
   -0.8609    1.2607    1.5354 c   0  0  0  0  0  0  0  0  0  0  0  0
   -0.2144    1.2857    0.1334 c   0  0  0  0  0  0  0  0  0  0  0  0
    0.0336   -0.1539   -0.3650 c   0  0  0  0  0  0  0  0  0  0  0  0
    1.1799    1.8826    0.2459 c   0  0  0  0  0  0  0  0  0  0  0  0
    1.9390    0.7377    0.9325 c   0  0  0  0  0  0  0  0  0  0  0  0
    1.3809   -0.5593    0.3017 c   0  0  0  0  0  0  0  0  0  0  0  0
    3.4152    0.9150    0.7902 c   0  0  0  0  0  0  0  0  0  0  0  0
    4.1802    0.0637    0.1314 c   0  0  0  0  0  0  0  0  0  0  0  0
    3.6512   -1.1889   -0.4768 c   0  0  0  0  0  0  0  0  0  0  0  0
    2.2009   -1.1774   -0.7838 n   0  0  0  0  0  0  0  0  0  0  0  0
    1.8811   -0.3642   -1.9765 c   0  0  0  0  0  0  0  0  0  0  0  0
    0.3736   -0.1524   -1.8790 c   0  0  0  0  0  0  0  0  0  0  0  0
    1.8203   -2.4582   -0.9848 o   0  0  0  0  0  0  0  0  0  0  0  0
    1.2654   -1.3541    1.0396 h   0  0  0  0  0  0  0  0  0  0  0  0
   -1.1187    2.1115   -0.7615 c   0  0  0  0  0  0  0  0  0  0  0  0
   -0.9181    3.2819   -1.0106 o   0  0  0  0  0  0  0  0  0  0  0  0
   -2.1619    1.4366   -1.2160 o   0  0  0  0  0  0  0  0  0  0  0  0
   -3.1052    2.1482   -2.0154 c   0  0  0  0  0  0  0  0  0  0  0  0
   -0.2946    0.8246    3.5705 h   0  0  0  0  0  0  0  0  0  0  0  0
   -0.1820   -0.5412    2.4691 h   0  0  0  0  0  0  0  0  0  0  0  0
    1.7855    1.7525    2.8226 h   0  0  0  0  0  0  0  0  0  0  0  0
    2.0700    0.0181    2.9767 h   0  0  0  0  0  0  0  0  0  0  0  0
   -2.2515   -4.1989   -0.6717 h   0  0  0  0  0  0  0  0  0  0  0  0
   -4.1473   -3.3838    0.7034 h   0  0  0  0  0  0  0  0  0  0  0  0
   -4.0512   -1.1307    1.6929 h   0  0  0  0  0  0  0  0  0  0  0  0
   -0.3295   -2.7283   -1.0905 h   0  0  0  0  0  0  0  0  0  0  0  0
   -2.7755    0.7313    2.1805 h   0  0  0  0  0  0  0  0  0  0  0  0
   -1.0256    2.2975    1.8527 h   0  0  0  0  0  0  0  0  0  0  0  0
    1.1874    2.7960    0.8381 h   0  0  0  0  0  0  0  0  0  0  0  0
    1.5791    2.1231   -0.7381 h   0  0  0  0  0  0  0  0  0  0  0  0
    3.8240    1.8096    1.2360 h   0  0  0  0  0  0  0  0  0  0  0  0
    5.2451    0.2144    0.0355 h   0  0  0  0  0  0  0  0  0  0  0  0
    4.1638   -1.4374   -1.4085 h   0  0  0  0  0  0  0  0  0  0  0  0
    3.7966   -2.0358    0.2037 h   0  0  0  0  0  0  0  0  0  0  0  0
    2.4430    0.5685   -1.9333 h   0  0  0  0  0  0  0  0  0  0  0  0
    2.1652   -0.9351   -2.8603 h   0  0  0  0  0  0  0  0  0  0  0  0
   -0.1497   -0.9681   -2.3739 h   0  0  0  0  0  0  0  0  0  0  0  0
    0.0844    0.7808   -2.3589 h   0  0  0  0  0  0  0  0  0  0  0  0
   -2.6134    2.5744   -2.8917 h   0  0  0  0  0  0  0  0  0  0  0  0
   -3.8535    1.4169   -2.3070 h   0  0  0  0  0  0  0  0  0  0  0  0
   -3.5549    2.9552   -1.4348 h   0  0  0  0  0  0  0  0  0  0  0  0
  1  2  1  0  0  0  0
  3  4  4  0  0  0  0
  4  5  4  0  0  0  0
  5  6  4  0  0  0  0
  6  7  4  0  0  0  0
  3  8  4  0  0  0  0
  7  8  4  0  0  0  0
  6  9  1  0  0  0  0
  1 10  1  0  0  0  0
  9 10  1  0  0  0  0
 10 11  1  0  0  0  0
  7 12  1  0  0  0  0
 11 12  1  0  0  0  0
 11 13  1  0  0  0  0
  2 14  1  0  0  0  0
 13 14  1  0  0  0  0
 12 15  1  0  0  0  0
 14 15  1  0  0  0  0
 14 16  1  0  0  0  0
 16 17  2  0  0  0  0
 17 18  1  0  0  0  0
 15 19  1  0  0  0  0
 18 19  1  0  0  0  0
 19 20  1  0  0  0  0
 12 21  1  0  0  0  0
 20 21  1  0  0  0  0
 19 22  1  0  0  0  0
 15 23  1  0  0  0  0
 11 24  1  0  0  0  0
 24 25  2  0  0  0  0
 24 26  1  0  0  0  0
 26 27  1  0  0  0  0
  1 28  1  0  0  0  0
  1 29  1  0  0  0  0
  2 30  1  0  0  0  0
  2 31  1  0  0  0  0
  3 32  1  0  0  0  0
  4 33  1  0  0  0  0
  5 34  1  0  0  0  0
  8 35  1  0  0  0  0
  9 36  1  0  0  0  0
 10 37  1  0  0  0  0
 13 38  1  0  0  0  0
 13 39  1  0  0  0  0
 16 40  1  0  0  0  0
 17 41  1  0  0  0  0
 18 42  1  0  0  0  0
 18 43  1  0  0  0  0
 20 44  1  0  0  0  0
 20 45  1  0  0  0  0
 21 46  1  0  0  0  0
 21 47  1  0  0  0  0
 27 48  1  0  0  0  0
 27 49  1  0  0  0  0
 27 50  1  0  0  0  0
M  END
