 xtb: 6.7.1 (edcfbbe)
          08092618423D

 35 36  0     0  0            999 V2000
    0.0277   -0.7727   -0.0287 c   0  0  0  0  0  0  0  0  0  0  0  0
    0.6440    0.4217   -0.8120 c   0  0  0  0  0  0  0  0  0  0  0  0
   -0.4030    1.5362   -0.9871 c   0  0  0  0  0  0  0  0  0  0  0  0
   -1.2348    1.8075    0.2652 c   0  0  0  0  0  0  0  0  0  0  0  0
   -1.7835    0.4945    0.8369 c   0  0  0  0  0  0  0  0  0  0  0  0
   -0.6051   -0.3674    1.3144 c   0  0  0  0  0  0  0  0  0  0  0  0
   -1.2383   -1.2481   -0.7772 c   0  0  0  0  0  0  0  0  0  0  0  0
   -2.3477   -0.3627   -0.2643 c   0  0  0  0  0  0  0  0  0  0  0  0
    0.2846    0.2467    2.2138 o   0  0  0  0  0  0  0  0  0  0  0  0
    1.0360   -1.9123    0.1568 c   0  0  0  0  0  0  0  0  0  0  0  0
   -3.5937   -0.3468   -0.7016 c   0  0  0  0  0  0  0  0  0  0  0  0
    1.9933    0.9105   -0.3130 c   0  0  0  0  0  0  0  0  0  0  0  0
    3.0974    0.3242   -0.7572 c   0  0  0  0  0  0  0  0  0  0  0  0
    0.8520    0.0159   -1.8102 h   0  0  0  0  0  0  0  0  0  0  0  0
    1.4984   -2.4621   -1.0581 o   0  0  0  0  0  0  0  0  0  0  0  0
    2.0880    2.0792    0.6202 c   0  0  0  0  0  0  0  0  0  0  0  0
    0.0939    2.4514   -1.3115 h   0  0  0  0  0  0  0  0  0  0  0  0
   -1.0861    1.2467   -1.7885 h   0  0  0  0  0  0  0  0  0  0  0  0
   -0.6315    2.2952    1.0306 h   0  0  0  0  0  0  0  0  0  0  0  0
   -2.0641    2.4697    0.0084 h   0  0  0  0  0  0  0  0  0  0  0  0
   -2.5084    0.6990    1.6290 h   0  0  0  0  0  0  0  0  0  0  0  0
   -1.0023   -1.2841    1.7851 h   0  0  0  0  0  0  0  0  0  0  0  0
   -1.1377   -1.1845   -1.8608 h   0  0  0  0  0  0  0  0  0  0  0  0
   -1.4588   -2.2884   -0.5184 h   0  0  0  0  0  0  0  0  0  0  0  0
   -0.2067    0.4699    3.0145 h   0  0  0  0  0  0  0  0  0  0  0  0
    0.5771   -2.7007    0.7720 h   0  0  0  0  0  0  0  0  0  0  0  0
    1.9217   -1.5430    0.6765 h   0  0  0  0  0  0  0  0  0  0  0  0
   -3.9216   -0.9840   -1.5061 h   0  0  0  0  0  0  0  0  0  0  0  0
   -4.3356    0.3066   -0.2749 h   0  0  0  0  0  0  0  0  0  0  0  0
    4.0760    0.6441   -0.4379 h   0  0  0  0  0  0  0  0  0  0  0  0
    3.0733   -0.5133   -1.4341 h   0  0  0  0  0  0  0  0  0  0  0  0
    0.7322   -2.7779   -1.5550 h   0  0  0  0  0  0  0  0  0  0  0  0
    1.6012    2.9587    0.2038 h   0  0  0  0  0  0  0  0  0  0  0  0
    1.6163    1.8365    1.5679 h   0  0  0  0  0  0  0  0  0  0  0  0
    3.1318    2.3213    0.8053 h   0  0  0  0  0  0  0  0  0  0  0  0
  1  2  1  0  0  0  0
  2  3  1  0  0  0  0
  3  4  1  0  0  0  0
  4  5  1  0  0  0  0
  1  6  1  0  0  0  0
  5  6  1  0  0  0  0
  1  7  1  0  0  0  0
  5  8  1  0  0  0  0
  7  8  1  0  0  0  0
  6  9  1  0  0  0  0
  1 10  1  0  0  0  0
  8 11  2  0  0  0  0
  2 12  1  0  0  0  0
 12 13  2  0  0  0  0
  2 14  1  0  0  0  0
 10 15  1  0  0  0  0
 12 16  1  0  0  0  0
  3 17  1  0  0  0  0
  3 18  1  0  0  0  0
  4 19  1  0  0  0  0
  4 20  1  0  0  0  0
  5 21  1  0  0  0  0
  6 22  1  0  0  0  0
  7 23  1  0  0  0  0
  7 24  1  0  0  0  0
  9 25  1  0  0  0  0
 10 26  1  0  0  0  0
 10 27  1  0  0  0  0
 11 28  1  0  0  0  0
 11 29  1  0  0  0  0
 13 30  1  0  0  0  0
 13 31  1  0  0  0  0
 15 32  1  0  0  0  0
 16 33  1  0  0  0  0
 16 34  1  0  0  0  0
 16 35  1  0  0  0  0
M  END
