 xtb: 6.7.1 (edcfbbe)
          08092615283D

 35 36  0     0  0            999 V2000
    0.0945   -0.6274    0.0995 c   0  0  0  0  0  0  0  0  0  0  0  0
   -0.9315    0.3957    0.6536 c   0  0  0  0  0  0  0  0  0  0  0  0
   -0.3146    1.8065    0.7410 c   0  0  0  0  0  0  0  0  0  0  0  0
    0.5831    2.2016   -0.4328 c   0  0  0  0  0  0  0  0  0  0  0  0
    1.5022    1.0400   -0.8198 c   0  0  0  0  0  0  0  0  0  0  0  0
    0.6321   -0.1382   -1.2604 c   0  0  0  0  0  0  0  0  0  0  0  0
    1.3650   -0.6092    0.9693 c   0  0  0  0  0  0  0  0  0  0  0  0
    2.1992    0.5085    0.4057 c   0  0  0  0  0  0  0  0  0  0  0  0
    1.4540   -1.0860   -1.9247 o   0  0  0  0  0  0  0  0  0  0  0  0
   -0.5072   -2.0324    0.0135 c   0  0  0  0  0  0  0  0  0  0  0  0
    3.3431    0.9506    0.8949 c   0  0  0  0  0  0  0  0  0  0  0  0
   -2.2726    0.3668   -0.0527 c   0  0  0  0  0  0  0  0  0  0  0  0
   -2.5480    0.9617   -1.2042 c   0  0  0  0  0  0  0  0  0  0  0  0
   -1.1318    0.0731    1.6812 h   0  0  0  0  0  0  0  0  0  0  0  0
   -0.9308   -2.4537    1.2989 o   0  0  0  0  0  0  0  0  0  0  0  0
   -3.3544   -0.3475    0.7070 c   0  0  0  0  0  0  0  0  0  0  0  0
   -1.1209    2.5351    0.8448 h   0  0  0  0  0  0  0  0  0  0  0  0
    0.2884    1.8536    1.6496 h   0  0  0  0  0  0  0  0  0  0  0  0
   -0.0078    2.4956   -1.3009 h   0  0  0  0  0  0  0  0  0  0  0  0
    1.1890    3.0613   -0.1404 h   0  0  0  0  0  0  0  0  0  0  0  0
    2.2017    1.3371   -1.6030 h   0  0  0  0  0  0  0  0  0  0  0  0
   -0.1759    0.1690   -1.9307 h   0  0  0  0  0  0  0  0  0  0  0  0
    1.9023   -1.5537    0.8573 h   0  0  0  0  0  0  0  0  0  0  0  0
    1.1414   -0.4800    2.0275 h   0  0  0  0  0  0  0  0  0  0  0  0
    0.8928   -1.7574   -2.3284 h   0  0  0  0  0  0  0  0  0  0  0  0
    0.2591   -2.7215   -0.3654 h   0  0  0  0  0  0  0  0  0  0  0  0
   -1.3582   -2.0285   -0.6836 h   0  0  0  0  0  0  0  0  0  0  0  0
    3.7780    0.5318    1.7871 h   0  0  0  0  0  0  0  0  0  0  0  0
    3.8921    1.7469    0.4213 h   0  0  0  0  0  0  0  0  0  0  0  0
   -3.5374    0.9112   -1.6307 h   0  0  0  0  0  0  0  0  0  0  0  0
   -1.8334    1.5337   -1.7667 h   0  0  0  0  0  0  0  0  0  0  0  0
   -1.1724   -3.3861    1.2531 h   0  0  0  0  0  0  0  0  0  0  0  0
   -2.9865   -1.2869    1.1121 h   0  0  0  0  0  0  0  0  0  0  0  0
   -3.6675    0.2693    1.5505 h   0  0  0  0  0  0  0  0  0  0  0  0
   -4.2225   -0.5366    0.0801 h   0  0  0  0  0  0  0  0  0  0  0  0
  1  2  1  0  0  0  0
  2  3  1  0  0  0  0
  3  4  1  0  0  0  0
  4  5  1  0  0  0  0
  1  6  1  0  0  0  0
  5  6  1  0  0  0  0
  1  7  1  0  0  0  0
  5  8  1  0  0  0  0
  7  8  1  0  0  0  0
  6  9  1  0  0  0  0
  1 10  1  0  0  0  0
  8 11  2  0  0  0  0
  2 12  1  0  0  0  0
 12 13  2  0  0  0  0
  2 14  1  0  0  0  0
 10 15  1  0  0  0  0
 12 16  1  0  0  0  0
  3 17  1  0  0  0  0
  3 18  1  0  0  0  0
  4 19  1  0  0  0  0
  4 20  1  0  0  0  0
  5 21  1  0  0  0  0
  6 22  1  0  0  0  0
  7 23  1  0  0  0  0
  7 24  1  0  0  0  0
  9 25  1  0  0  0  0
 10 26  1  0  0  0  0
 10 27  1  0  0  0  0
 11 28  1  0  0  0  0
 11 29  1  0  0  0  0
 13 30  1  0  0  0  0
 13 31  1  0  0  0  0
 15 32  1  0  0  0  0
 16 33  1  0  0  0  0
 16 34  1  0  0  0  0
 16 35  1  0  0  0  0
M  END
