 xtb: 6.7.1 (edcfbbe)
          08092615283D

 35 36  0     0  0            999 V2000
    0.1538   -0.6084    0.3825 c   0  0  0  0  0  0  0  0  0  0  0  0
   -0.8929    0.4769    0.7514 c   0  0  0  0  0  0  0  0  0  0  0  0
   -0.3373    1.8983    0.5155 c   0  0  0  0  0  0  0  0  0  0  0  0
    0.5277    2.0540   -0.7348 c   0  0  0  0  0  0  0  0  0  0  0  0
    1.5195    0.8922   -0.8420 c   0  0  0  0  0  0  0  0  0  0  0  0
    0.7237   -0.4032   -1.0314 c   0  0  0  0  0  0  0  0  0  0  0  0
    1.4159   -0.3722    1.2390 c   0  0  0  0  0  0  0  0  0  0  0  0
    2.2044    0.6631    0.4816 c   0  0  0  0  0  0  0  0  0  0  0  0
    1.5604   -1.5025   -1.3526 o   0  0  0  0  0  0  0  0  0  0  0  0
   -0.3921   -2.0289    0.5994 c   0  0  0  0  0  0  0  0  0  0  0  0
    3.3078    1.2610    0.8925 c   0  0  0  0  0  0  0  0  0  0  0  0
   -2.2832    0.3005    0.1734 c   0  0  0  0  0  0  0  0  0  0  0  0
   -3.2745   -0.0864    0.9707 c   0  0  0  0  0  0  0  0  0  0  0  0
   -1.0274    0.3743    1.8355 h   0  0  0  0  0  0  0  0  0  0  0  0
   -1.3968   -2.4224   -0.3072 o   0  0  0  0  0  0  0  0  0  0  0  0
   -2.5609    0.6176   -1.2661 c   0  0  0  0  0  0  0  0  0  0  0  0
   -1.1697    2.6044    0.4836 h   0  0  0  0  0  0  0  0  0  0  0  0
    0.2774    2.1652    1.3769 h   0  0  0  0  0  0  0  0  0  0  0  0
   -0.0797    2.0813   -1.6407 h   0  0  0  0  0  0  0  0  0  0  0  0
    1.0730    2.9978   -0.6702 h   0  0  0  0  0  0  0  0  0  0  0  0
    2.2284    1.0698   -1.6551 h   0  0  0  0  0  0  0  0  0  0  0  0
   -0.0522   -0.3091   -1.7974 h   0  0  0  0  0  0  0  0  0  0  0  0
    1.9953   -1.2962    1.2936 h   0  0  0  0  0  0  0  0  0  0  0  0
    1.1840   -0.0600    2.2568 h   0  0  0  0  0  0  0  0  0  0  0  0
    1.9964   -1.3133   -2.1921 h   0  0  0  0  0  0  0  0  0  0  0  0
   -0.7550   -2.1201    1.6331 h   0  0  0  0  0  0  0  0  0  0  0  0
    0.4198   -2.7434    0.4469 h   0  0  0  0  0  0  0  0  0  0  0  0
    3.7386    1.0549    1.8580 h   0  0  0  0  0  0  0  0  0  0  0  0
    3.8255    1.9803    0.2802 h   0  0  0  0  0  0  0  0  0  0  0  0
   -4.2839   -0.2001    0.6098 h   0  0  0  0  0  0  0  0  0  0  0  0
   -3.1234   -0.3090    2.0143 h   0  0  0  0  0  0  0  0  0  0  0  0
   -2.1637   -1.8442   -0.1712 h   0  0  0  0  0  0  0  0  0  0  0  0
   -2.2010    1.6109   -1.5215 h   0  0  0  0  0  0  0  0  0  0  0  0
   -2.0777   -0.1016   -1.9252 h   0  0  0  0  0  0  0  0  0  0  0  0
   -3.6314    0.5807   -1.4567 h   0  0  0  0  0  0  0  0  0  0  0  0
  1  2  1  0  0  0  0
  2  3  1  0  0  0  0
  3  4  1  0  0  0  0
  4  5  1  0  0  0  0
  1  6  1  0  0  0  0
  5  6  1  0  0  0  0
  1  7  1  0  0  0  0
  5  8  1  0  0  0  0
  7  8  1  0  0  0  0
  6  9  1  0  0  0  0
  1 10  1  0  0  0  0
  8 11  2  0  0  0  0
  2 12  1  0  0  0  0
 12 13  2  0  0  0  0
  2 14  1  0  0  0  0
 10 15  1  0  0  0  0
 12 16  1  0  0  0  0
  3 17  1  0  0  0  0
  3 18  1  0  0  0  0
  4 19  1  0  0  0  0
  4 20  1  0  0  0  0
  5 21  1  0  0  0  0
  6 22  1  0  0  0  0
  7 23  1  0  0  0  0
  7 24  1  0  0  0  0
  9 25  1  0  0  0  0
 10 26  1  0  0  0  0
 10 27  1  0  0  0  0
 11 28  1  0  0  0  0
 11 29  1  0  0  0  0
 13 30  1  0  0  0  0
 13 31  1  0  0  0  0
 15 32  1  0  0  0  0
 16 33  1  0  0  0  0
 16 34  1  0  0  0  0
 16 35  1  0  0  0  0
M  END
