 xtb: 6.7.1 (edcfbbe)
          08092615283D

 35 36  0     0  0            999 V2000
    0.1461   -0.6021    0.3675 c   0  0  0  0  0  0  0  0  0  0  0  0
   -0.9041    0.4853    0.7203 c   0  0  0  0  0  0  0  0  0  0  0  0
   -0.3257    1.9051    0.5388 c   0  0  0  0  0  0  0  0  0  0  0  0
    0.5653    2.0860   -0.6891 c   0  0  0  0  0  0  0  0  0  0  0  0
    1.5349    0.9092   -0.8175 c   0  0  0  0  0  0  0  0  0  0  0  0
    0.7291   -0.3777   -1.0372 c   0  0  0  0  0  0  0  0  0  0  0  0
    1.3948   -0.3841    1.2446 c   0  0  0  0  0  0  0  0  0  0  0  0
    2.2017    0.6533    0.5105 c   0  0  0  0  0  0  0  0  0  0  0  0
    1.5579   -1.4715   -1.3636 o   0  0  0  0  0  0  0  0  0  0  0  0
   -0.4148   -2.0216    0.5408 c   0  0  0  0  0  0  0  0  0  0  0  0
    3.3017    1.2392    0.9449 c   0  0  0  0  0  0  0  0  0  0  0  0
   -2.2542    0.3274    0.0493 c   0  0  0  0  0  0  0  0  0  0  0  0
   -2.5293    0.6596   -1.2048 c   0  0  0  0  0  0  0  0  0  0  0  0
   -1.0935    0.3650    1.7947 h   0  0  0  0  0  0  0  0  0  0  0  0
   -1.3353   -2.4190   -0.4402 o   0  0  0  0  0  0  0  0  0  0  0  0
   -3.3469   -0.1661    0.9590 c   0  0  0  0  0  0  0  0  0  0  0  0
   -1.1509    2.6195    0.5014 h   0  0  0  0  0  0  0  0  0  0  0  0
    0.2733    2.1423    1.4201 h   0  0  0  0  0  0  0  0  0  0  0  0
   -0.0294    2.1670   -1.6002 h   0  0  0  0  0  0  0  0  0  0  0  0
    1.1289    3.0151   -0.5810 h   0  0  0  0  0  0  0  0  0  0  0  0
    2.2556    1.0935   -1.6191 h   0  0  0  0  0  0  0  0  0  0  0  0
   -0.0519   -0.2634   -1.7981 h   0  0  0  0  0  0  0  0  0  0  0  0
    1.9675   -1.3120    1.2959 h   0  0  0  0  0  0  0  0  0  0  0  0
    1.1508   -0.0816    2.2632 h   0  0  0  0  0  0  0  0  0  0  0  0
    1.9392   -1.3199   -2.2339 h   0  0  0  0  0  0  0  0  0  0  0  0
   -0.8562   -2.1092    1.5481 h   0  0  0  0  0  0  0  0  0  0  0  0
    0.4066   -2.7365    0.4615 h   0  0  0  0  0  0  0  0  0  0  0  0
    3.7175    1.0184    1.9134 h   0  0  0  0  0  0  0  0  0  0  0  0
    3.8329    1.9620    0.3489 h   0  0  0  0  0  0  0  0  0  0  0  0
   -3.5237    0.5447   -1.6047 h   0  0  0  0  0  0  0  0  0  0  0  0
   -1.8014    1.0594   -1.8856 h   0  0  0  0  0  0  0  0  0  0  0  0
   -2.0024   -1.7281   -0.5426 h   0  0  0  0  0  0  0  0  0  0  0  0
   -4.2693   -0.3397    0.4098 h   0  0  0  0  0  0  0  0  0  0  0  0
   -3.0605   -1.0875    1.4636 h   0  0  0  0  0  0  0  0  0  0  0  0
   -3.5422    0.5808    1.7294 h   0  0  0  0  0  0  0  0  0  0  0  0
  1  2  1  0  0  0  0
  2  3  1  0  0  0  0
  3  4  1  0  0  0  0
  4  5  1  0  0  0  0
  1  6  1  0  0  0  0
  5  6  1  0  0  0  0
  1  7  1  0  0  0  0
  5  8  1  0  0  0  0
  7  8  1  0  0  0  0
  6  9  1  0  0  0  0
  1 10  1  0  0  0  0
  8 11  2  0  0  0  0
  2 12  1  0  0  0  0
 12 13  2  0  0  0  0
  2 14  1  0  0  0  0
 10 15  1  0  0  0  0
 12 16  1  0  0  0  0
  3 17  1  0  0  0  0
  3 18  1  0  0  0  0
  4 19  1  0  0  0  0
  4 20  1  0  0  0  0
  5 21  1  0  0  0  0
  6 22  1  0  0  0  0
  7 23  1  0  0  0  0
  7 24  1  0  0  0  0
  9 25  1  0  0  0  0
 10 26  1  0  0  0  0
 10 27  1  0  0  0  0
 11 28  1  0  0  0  0
 11 29  1  0  0  0  0
 13 30  1  0  0  0  0
 13 31  1  0  0  0  0
 15 32  1  0  0  0  0
 16 33  1  0  0  0  0
 16 34  1  0  0  0  0
 16 35  1  0  0  0  0
M  END
