 xtb: 6.7.1 (edcfbbe)
          08092615283D

 35 36  0     0  0            999 V2000
   -0.0433   -0.5607    0.3103 c   0  0  0  0  0  0  0  0  0  0  0  0
   -1.0139    0.5717    0.7280 c   0  0  0  0  0  0  0  0  0  0  0  0
   -0.3510    1.9598    0.5950 c   0  0  0  0  0  0  0  0  0  0  0  0
    0.5668    2.1368   -0.6151 c   0  0  0  0  0  0  0  0  0  0  0  0
    1.4488    0.9010   -0.8112 c   0  0  0  0  0  0  0  0  0  0  0  0
    0.5414   -0.2977   -1.0947 c   0  0  0  0  0  0  0  0  0  0  0  0
    1.2208   -0.4821    1.1878 c   0  0  0  0  0  0  0  0  0  0  0  0
    2.1115    0.5109    0.4878 c   0  0  0  0  0  0  0  0  0  0  0  0
    1.2604   -1.3940   -1.6276 o   0  0  0  0  0  0  0  0  0  0  0  0
   -0.7503   -1.9213    0.4343 c   0  0  0  0  0  0  0  0  0  0  0  0
    3.2736    0.9613    0.9240 c   0  0  0  0  0  0  0  0  0  0  0  0
   -2.3932    0.5043    0.1050 c   0  0  0  0  0  0  0  0  0  0  0  0
   -3.4245    0.1261    0.8477 c   0  0  0  0  0  0  0  0  0  0  0  0
   -1.1872    0.4170    1.8003 h   0  0  0  0  0  0  0  0  0  0  0  0
    0.1021   -3.0195    0.2481 o   0  0  0  0  0  0  0  0  0  0  0  0
   -2.6115    0.9017   -1.3247 c   0  0  0  0  0  0  0  0  0  0  0  0
   -1.1303    2.7245    0.5837 h   0  0  0  0  0  0  0  0  0  0  0  0
    0.2505    2.1290    1.4903 h   0  0  0  0  0  0  0  0  0  0  0  0
   -0.0054    2.3044   -1.5291 h   0  0  0  0  0  0  0  0  0  0  0  0
    1.1957    3.0149   -0.4537 h   0  0  0  0  0  0  0  0  0  0  0  0
    2.1671    1.0744   -1.6167 h   0  0  0  0  0  0  0  0  0  0  0  0
   -0.2217   -0.0835   -1.8415 h   0  0  0  0  0  0  0  0  0  0  0  0
    1.6939   -1.4675    1.2381 h   0  0  0  0  0  0  0  0  0  0  0  0
    0.9979   -0.1828    2.2121 h   0  0  0  0  0  0  0  0  0  0  0  0
    2.0807   -1.4829   -1.1270 h   0  0  0  0  0  0  0  0  0  0  0  0
   -1.5858   -1.9565   -0.2793 h   0  0  0  0  0  0  0  0  0  0  0  0
   -1.1610   -2.0260    1.4424 h   0  0  0  0  0  0  0  0  0  0  0  0
    3.6850    0.6475    1.8685 h   0  0  0  0  0  0  0  0  0  0  0  0
    3.8574    1.6661    0.3565 h   0  0  0  0  0  0  0  0  0  0  0  0
   -4.4246    0.0821    0.4505 h   0  0  0  0  0  0  0  0  0  0  0  0
   -3.3167   -0.1647    1.8788 h   0  0  0  0  0  0  0  0  0  0  0  0
    0.4813   -2.9312   -0.6402 h   0  0  0  0  0  0  0  0  0  0  0  0
   -2.0896    1.8238   -1.5652 h   0  0  0  0  0  0  0  0  0  0  0  0
   -2.2635    0.1231   -2.0023 h   0  0  0  0  0  0  0  0  0  0  0  0
   -3.6731    1.0490   -1.5101 h   0  0  0  0  0  0  0  0  0  0  0  0
  1  2  1  0  0  0  0
  2  3  1  0  0  0  0
  3  4  1  0  0  0  0
  4  5  1  0  0  0  0
  1  6  1  0  0  0  0
  5  6  1  0  0  0  0
  1  7  1  0  0  0  0
  5  8  1  0  0  0  0
  7  8  1  0  0  0  0
  6  9  1  0  0  0  0
  1 10  1  0  0  0  0
  8 11  2  0  0  0  0
  2 12  1  0  0  0  0
 12 13  2  0  0  0  0
  2 14  1  0  0  0  0
 10 15  1  0  0  0  0
 12 16  1  0  0  0  0
  3 17  1  0  0  0  0
  3 18  1  0  0  0  0
  4 19  1  0  0  0  0
  4 20  1  0  0  0  0
  5 21  1  0  0  0  0
  6 22  1  0  0  0  0
  7 23  1  0  0  0  0
  7 24  1  0  0  0  0
  9 25  1  0  0  0  0
 10 26  1  0  0  0  0
 10 27  1  0  0  0  0
 11 28  1  0  0  0  0
 11 29  1  0  0  0  0
 13 30  1  0  0  0  0
 13 31  1  0  0  0  0
 15 32  1  0  0  0  0
 16 33  1  0  0  0  0
 16 34  1  0  0  0  0
 16 35  1  0  0  0  0
M  END
