 xtb: 6.7.1 (edcfbbe)
          08092616283D

 35 36  0     0  0            999 V2000
   -0.0216   -0.5650    0.2990 c   0  0  0  0  0  0  0  0  0  0  0  0
   -0.9841    0.5772    0.7220 c   0  0  0  0  0  0  0  0  0  0  0  0
   -0.3362    1.9689    0.5515 c   0  0  0  0  0  0  0  0  0  0  0  0
    0.5633    2.1266   -0.6749 c   0  0  0  0  0  0  0  0  0  0  0  0
    1.4591    0.8964   -0.8344 c   0  0  0  0  0  0  0  0  0  0  0  0
    0.5649   -0.3163   -1.1035 c   0  0  0  0  0  0  0  0  0  0  0  0
    1.2489   -0.4848    1.1685 c   0  0  0  0  0  0  0  0  0  0  0  0
    2.1077    0.5458    0.4804 c   0  0  0  0  0  0  0  0  0  0  0  0
    1.3650   -1.3849   -1.5802 o   0  0  0  0  0  0  0  0  0  0  0  0
   -0.7729   -1.9007    0.4276 c   0  0  0  0  0  0  0  0  0  0  0  0
    3.2362    1.0492    0.9454 c   0  0  0  0  0  0  0  0  0  0  0  0
   -2.3802    0.5063    0.1348 c   0  0  0  0  0  0  0  0  0  0  0  0
   -3.4017    0.1929    0.9212 c   0  0  0  0  0  0  0  0  0  0  0  0
   -1.1313    0.4393    1.8003 h   0  0  0  0  0  0  0  0  0  0  0  0
   -0.0026   -3.0525    0.1326 o   0  0  0  0  0  0  0  0  0  0  0  0
   -2.6227    0.8402   -1.3067 c   0  0  0  0  0  0  0  0  0  0  0  0
   -1.1246    2.7240    0.5349 h   0  0  0  0  0  0  0  0  0  0  0  0
    0.2759    2.1622    1.4343 h   0  0  0  0  0  0  0  0  0  0  0  0
   -0.0201    2.2561   -1.5874 h   0  0  0  0  0  0  0  0  0  0  0  0
    1.1812    3.0173   -0.5461 h   0  0  0  0  0  0  0  0  0  0  0  0
    2.1875    1.0403   -1.6339 h   0  0  0  0  0  0  0  0  0  0  0  0
   -0.2052   -0.1000   -1.8517 h   0  0  0  0  0  0  0  0  0  0  0  0
    1.7842   -1.4383    1.1589 h   0  0  0  0  0  0  0  0  0  0  0  0
    1.0361   -0.2276    2.2063 h   0  0  0  0  0  0  0  0  0  0  0  0
    0.9313   -2.2149   -1.3209 h   0  0  0  0  0  0  0  0  0  0  0  0
   -1.5988   -1.9240   -0.2871 h   0  0  0  0  0  0  0  0  0  0  0  0
   -1.1953   -1.9817    1.4367 h   0  0  0  0  0  0  0  0  0  0  0  0
    3.6371    0.7594    1.9027 h   0  0  0  0  0  0  0  0  0  0  0  0
    3.8067    1.7704    0.3852 h   0  0  0  0  0  0  0  0  0  0  0  0
   -4.4132    0.1571    0.5519 h   0  0  0  0  0  0  0  0  0  0  0  0
   -3.2764   -0.0454    1.9643 h   0  0  0  0  0  0  0  0  0  0  0  0
    0.6730   -3.1579    0.8153 h   0  0  0  0  0  0  0  0  0  0  0  0
   -2.1173    1.7600   -1.5871 h   0  0  0  0  0  0  0  0  0  0  0  0
   -2.2650    0.0430   -1.9568 h   0  0  0  0  0  0  0  0  0  0  0  0
   -3.6885    0.9624   -1.4863 h   0  0  0  0  0  0  0  0  0  0  0  0
  1  2  1  0  0  0  0
  2  3  1  0  0  0  0
  3  4  1  0  0  0  0
  4  5  1  0  0  0  0
  1  6  1  0  0  0  0
  5  6  1  0  0  0  0
  1  7  1  0  0  0  0
  5  8  1  0  0  0  0
  7  8  1  0  0  0  0
  6  9  1  0  0  0  0
  1 10  1  0  0  0  0
  8 11  2  0  0  0  0
  2 12  1  0  0  0  0
 12 13  2  0  0  0  0
  2 14  1  0  0  0  0
 10 15  1  0  0  0  0
 12 16  1  0  0  0  0
  3 17  1  0  0  0  0
  3 18  1  0  0  0  0
  4 19  1  0  0  0  0
  4 20  1  0  0  0  0
  5 21  1  0  0  0  0
  6 22  1  0  0  0  0
  7 23  1  0  0  0  0
  7 24  1  0  0  0  0
  9 25  1  0  0  0  0
 10 26  1  0  0  0  0
 10 27  1  0  0  0  0
 11 28  1  0  0  0  0
 11 29  1  0  0  0  0
 13 30  1  0  0  0  0
 13 31  1  0  0  0  0
 15 32  1  0  0  0  0
 16 33  1  0  0  0  0
 16 34  1  0  0  0  0
 16 35  1  0  0  0  0
M  END
