 xtb: 6.7.1 (edcfbbe)
          08092617053D

 35 36  0     0  0            999 V2000
    0.1472   -0.6001    0.3671 c   0  0  0  0  0  0  0  0  0  0  0  0
   -0.9094    0.4815    0.7206 c   0  0  0  0  0  0  0  0  0  0  0  0
   -0.3334    1.9034    0.5451 c   0  0  0  0  0  0  0  0  0  0  0  0
    0.5588    2.0904   -0.6813 c   0  0  0  0  0  0  0  0  0  0  0  0
    1.5320    0.9161   -0.8157 c   0  0  0  0  0  0  0  0  0  0  0  0
    0.7269   -0.3690   -1.0379 c   0  0  0  0  0  0  0  0  0  0  0  0
    1.3945   -0.3782    1.2467 c   0  0  0  0  0  0  0  0  0  0  0  0
    2.2058    0.6529    0.5076 c   0  0  0  0  0  0  0  0  0  0  0  0
    1.5592   -1.4652   -1.3784 o   0  0  0  0  0  0  0  0  0  0  0  0
   -0.4070   -2.0213    0.5419 c   0  0  0  0  0  0  0  0  0  0  0  0
    3.3179    1.2238    0.9332 c   0  0  0  0  0  0  0  0  0  0  0  0
   -2.2593    0.3199    0.0476 c   0  0  0  0  0  0  0  0  0  0  0  0
   -2.5316    0.6426   -1.2102 c   0  0  0  0  0  0  0  0  0  0  0  0
   -1.0991    0.3558    1.7934 h   0  0  0  0  0  0  0  0  0  0  0  0
   -1.3349   -2.4186   -0.4417 o   0  0  0  0  0  0  0  0  0  0  0  0
   -3.3547   -0.1619    0.9607 c   0  0  0  0  0  0  0  0  0  0  0  0
   -1.1599    2.6159    0.5075 h   0  0  0  0  0  0  0  0  0  0  0  0
    0.2629    2.1390    1.4283 h   0  0  0  0  0  0  0  0  0  0  0  0
   -0.0347    2.1721   -1.5927 h   0  0  0  0  0  0  0  0  0  0  0  0
    1.1214    3.0195   -0.5697 h   0  0  0  0  0  0  0  0  0  0  0  0
    2.2483    1.1039   -1.6199 h   0  0  0  0  0  0  0  0  0  0  0  0
   -0.0537   -0.2594   -1.7986 h   0  0  0  0  0  0  0  0  0  0  0  0
    1.9656   -1.3067    1.3102 h   0  0  0  0  0  0  0  0  0  0  0  0
    1.1459   -0.0666    2.2608 h   0  0  0  0  0  0  0  0  0  0  0  0
    1.9751   -1.2759   -2.2279 h   0  0  0  0  0  0  0  0  0  0  0  0
   -0.8504   -2.1154    1.5453 h   0  0  0  0  0  0  0  0  0  0  0  0
    0.4134   -2.7376    0.4581 h   0  0  0  0  0  0  0  0  0  0  0  0
    3.7393    0.9958    1.8979 h   0  0  0  0  0  0  0  0  0  0  0  0
    3.8525    1.9416    0.3339 h   0  0  0  0  0  0  0  0  0  0  0  0
   -3.5257    0.5263   -1.6111 h   0  0  0  0  0  0  0  0  0  0  0  0
   -1.8018    1.0353   -1.8933 h   0  0  0  0  0  0  0  0  0  0  0  0
   -2.0036   -1.7223   -0.5283 h   0  0  0  0  0  0  0  0  0  0  0  0
   -4.2779   -0.3337    0.4124 h   0  0  0  0  0  0  0  0  0  0  0  0
   -3.0728   -1.0821    1.4701 h   0  0  0  0  0  0  0  0  0  0  0  0
   -3.5449    0.5906    1.7267 h   0  0  0  0  0  0  0  0  0  0  0  0
  1  2  1  0  0  0  0
  2  3  1  0  0  0  0
  3  4  1  0  0  0  0
  4  5  1  0  0  0  0
  1  6  1  0  0  0  0
  5  6  1  0  0  0  0
  1  7  1  0  0  0  0
  5  8  1  0  0  0  0
  7  8  1  0  0  0  0
  6  9  1  0  0  0  0
  1 10  1  0  0  0  0
  8 11  2  0  0  0  0
  2 12  1  0  0  0  0
 12 13  2  0  0  0  0
  2 14  1  0  0  0  0
 10 15  1  0  0  0  0
 12 16  1  0  0  0  0
  3 17  1  0  0  0  0
  3 18  1  0  0  0  0
  4 19  1  0  0  0  0
  4 20  1  0  0  0  0
  5 21  1  0  0  0  0
  6 22  1  0  0  0  0
  7 23  1  0  0  0  0
  7 24  1  0  0  0  0
  9 25  1  0  0  0  0
 10 26  1  0  0  0  0
 10 27  1  0  0  0  0
 11 28  1  0  0  0  0
 11 29  1  0  0  0  0
 13 30  1  0  0  0  0
 13 31  1  0  0  0  0
 15 32  1  0  0  0  0
 16 33  1  0  0  0  0
 16 34  1  0  0  0  0
 16 35  1  0  0  0  0
M  END
