 xtb: 6.7.1 (edcfbbe)
          08092602483D

 42 44  0     0  0            999 V2000
   -0.6525    1.5557    0.1109 c   0  0  0  0  0  0  0  0  0  0  0  0
   -1.2544    1.0550   -1.2132 c   0  0  0  0  0  0  0  0  0  0  0  0
   -2.5012    0.1765   -1.1498 c   0  0  0  0  0  0  0  0  0  0  0  0
   -2.1773   -1.2923   -0.9156 c   0  0  0  0  0  0  0  0  0  0  0  0
   -1.6181   -1.5799    0.4742 c   0  0  0  0  0  0  0  0  0  0  0  0
   -0.2100   -1.0213    0.6977 c   0  0  0  0  0  0  0  0  0  0  0  0
   -0.0202    0.4671    1.0167 c   0  0  0  0  0  0  0  0  0  0  0  0
    0.5176    2.5107   -0.2553 c   0  0  0  0  0  0  0  0  0  0  0  0
    1.7663    2.0353    0.4885 c   0  0  0  0  0  0  0  0  0  0  0  0
    1.5053    0.5806    0.8606 c   0  0  0  0  0  0  0  0  0  0  0  0
    0.6560   -1.2656   -0.3925 o   0  0  0  0  0  0  0  0  0  0  0  0
    1.8692   -0.5459   -0.1574 c   0  0  0  0  0  0  0  0  0  0  0  0
   -0.3215    0.6556    2.0493 h   0  0  0  0  0  0  0  0  0  0  0  0
    2.0060    0.3456    1.8034 h   0  0  0  0  0  0  0  0  0  0  0  0
    0.1897   -1.5528    1.5849 h   0  0  0  0  0  0  0  0  0  0  0  0
   -1.5942   -3.0918    0.7092 c   0  0  0  0  0  0  0  0  0  0  0  0
    2.3969   -0.0725   -1.5108 c   0  0  0  0  0  0  0  0  0  0  0  0
    2.9063   -1.4941    0.4645 c   0  0  0  0  0  0  0  0  0  0  0  0
   -1.7058    2.3251    0.9148 c   0  0  0  0  0  0  0  0  0  0  0  0
   -1.4992    1.9487   -1.7956 h   0  0  0  0  0  0  0  0  0  0  0  0
   -0.4890    0.5014   -1.7574 h   0  0  0  0  0  0  0  0  0  0  0  0
   -3.1911    0.5309   -0.3833 h   0  0  0  0  0  0  0  0  0  0  0  0
   -3.0173    0.2586   -2.1103 h   0  0  0  0  0  0  0  0  0  0  0  0
   -1.4506   -1.6300   -1.6558 h   0  0  0  0  0  0  0  0  0  0  0  0
   -3.0905   -1.8786   -1.0460 h   0  0  0  0  0  0  0  0  0  0  0  0
   -2.2681   -1.1173    1.2265 h   0  0  0  0  0  0  0  0  0  0  0  0
    0.2747    3.5396    0.0102 h   0  0  0  0  0  0  0  0  0  0  0  0
    0.6920    2.4931   -1.3310 h   0  0  0  0  0  0  0  0  0  0  0  0
    2.6716    2.1655   -0.1010 h   0  0  0  0  0  0  0  0  0  0  0  0
    1.8878    2.6049    1.4120 h   0  0  0  0  0  0  0  0  0  0  0  0
   -1.2711   -3.3234    1.7221 h   0  0  0  0  0  0  0  0  0  0  0  0
   -2.5839   -3.5175    0.5602 h   0  0  0  0  0  0  0  0  0  0  0  0
   -0.9043   -3.5579    0.0105 h   0  0  0  0  0  0  0  0  0  0  0  0
    1.7352    0.6599   -1.9597 h   0  0  0  0  0  0  0  0  0  0  0  0
    3.3897    0.3556   -1.4045 h   0  0  0  0  0  0  0  0  0  0  0  0
    2.4550   -0.9309   -2.1756 h   0  0  0  0  0  0  0  0  0  0  0  0
    2.5184   -1.9359    1.3797 h   0  0  0  0  0  0  0  0  0  0  0  0
    3.1339   -2.2973   -0.2319 h   0  0  0  0  0  0  0  0  0  0  0  0
    3.8207   -0.9532    0.6951 h   0  0  0  0  0  0  0  0  0  0  0  0
   -2.4614    1.6547    1.3171 h   0  0  0  0  0  0  0  0  0  0  0  0
   -1.2374    2.8411    1.7508 h   0  0  0  0  0  0  0  0  0  0  0  0
   -2.1998    3.0643    0.2871 h   0  0  0  0  0  0  0  0  0  0  0  0
  1  2  1  0  0  0  0
  2  3  1  0  0  0  0
  3  4  1  0  0  0  0
  4  5  1  0  0  0  0
  5  6  1  0  0  0  0
  1  7  1  0  0  0  0
  6  7  1  0  0  0  0
  1  8  1  0  0  0  0
  8  9  1  0  0  0  0
  7 10  1  0  0  0  0
  9 10  1  0  0  0  0
  6 11  1  0  0  0  0
 10 12  1  0  0  0  0
 11 12  1  0  0  0  0
  7 13  1  0  0  0  0
 10 14  1  0  0  0  0
  6 15  1  0  0  0  0
  5 16  1  0  0  0  0
 12 17  1  0  0  0  0
 12 18  1  0  0  0  0
  1 19  1  0  0  0  0
  2 20  1  0  0  0  0
  2 21  1  0  0  0  0
  3 22  1  0  0  0  0
  3 23  1  0  0  0  0
  4 24  1  0  0  0  0
  4 25  1  0  0  0  0
  5 26  1  0  0  0  0
  8 27  1  0  0  0  0
  8 28  1  0  0  0  0
  9 29  1  0  0  0  0
  9 30  1  0  0  0  0
 16 31  1  0  0  0  0
 16 32  1  0  0  0  0
 16 33  1  0  0  0  0
 17 34  1  0  0  0  0
 17 35  1  0  0  0  0
 17 36  1  0  0  0  0
 18 37  1  0  0  0  0
 18 38  1  0  0  0  0
 18 39  1  0  0  0  0
 19 40  1  0  0  0  0
 19 41  1  0  0  0  0
 19 42  1  0  0  0  0
M  END
