 xtb: 6.7.1 (edcfbbe)
          08092621573D

 50 55  0     0  0            999 V2000
   -0.4346    0.0325   -2.4900 c   0  0  0  0  0  0  0  0  0  0  0  0
    1.0870    0.0412   -2.5933 c   0  0  0  0  0  0  0  0  0  0  0  0
   -2.6076    3.1693    0.5874 c   0  0  0  0  0  0  0  0  0  0  0  0
   -3.7239    2.5889    0.0109 c   0  0  0  0  0  0  0  0  0  0  0  0
   -3.6279    1.3230   -0.5259 c   0  0  0  0  0  0  0  0  0  0  0  0
   -2.4313    0.6092   -0.4705 c   0  0  0  0  0  0  0  0  0  0  0  0
   -1.3132    1.1569    0.1803 c   0  0  0  0  0  0  0  0  0  0  0  0
   -1.4296    2.4491    0.6763 c   0  0  0  0  0  0  0  0  0  0  0  0
   -2.3375   -0.6272   -1.0781 n   0  0  0  0  0  0  0  0  0  0  0  0
   -1.0010   -0.9932   -1.4856 c   0  0  0  0  0  0  0  0  0  0  0  0
   -0.1502   -1.0787   -0.2000 c   0  0  0  0  0  0  0  0  0  0  0  0
   -0.0606    0.3337    0.4362 c   0  0  0  0  0  0  0  0  0  0  0  0
    1.2786   -1.4497   -0.6233 c   0  0  0  0  0  0  0  0  0  0  0  0
    1.7593   -0.1180   -1.2226 c   0  0  0  0  0  0  0  0  0  0  0  0
    1.2515    0.8640   -0.1740 c   0  0  0  0  0  0  0  0  0  0  0  0
    3.2383    0.0914   -1.3946 c   0  0  0  0  0  0  0  0  0  0  0  0
    3.9421    0.9715   -0.6969 c   0  0  0  0  0  0  0  0  0  0  0  0
    3.3857    1.7015    0.4968 c   0  0  0  0  0  0  0  0  0  0  0  0
    2.2579    0.8726    0.9711 n   0  0  0  0  0  0  0  0  0  0  0  0
    1.4198    1.3591    2.0847 c   0  0  0  0  0  0  0  0  0  0  0  0
    0.2409    0.3907    1.9604 c   0  0  0  0  0  0  0  0  0  0  0  0
    2.7560   -0.3031    1.3399 o   0  0  0  0  0  0  0  0  0  0  0  0
    1.1669    1.8878   -0.5444 h   0  0  0  0  0  0  0  0  0  0  0  0
   -0.8090   -2.1136    0.6912 c   0  0  0  0  0  0  0  0  0  0  0  0
   -1.4626   -1.8928    1.6744 o   0  0  0  0  0  0  0  0  0  0  0  0
   -0.6008   -3.3467    0.2116 o   0  0  0  0  0  0  0  0  0  0  0  0
   -1.1848   -4.4065    0.9557 c   0  0  0  0  0  0  0  0  0  0  0  0
   -0.8685   -0.1627   -3.4740 h   0  0  0  0  0  0  0  0  0  0  0  0
   -0.7681    1.0250   -2.1799 h   0  0  0  0  0  0  0  0  0  0  0  0
    1.4261   -0.7838   -3.2235 h   0  0  0  0  0  0  0  0  0  0  0  0
    1.4078    0.9728   -3.0670 h   0  0  0  0  0  0  0  0  0  0  0  0
   -2.6546    4.1735    0.9803 h   0  0  0  0  0  0  0  0  0  0  0  0
   -4.6574    3.1290   -0.0399 h   0  0  0  0  0  0  0  0  0  0  0  0
   -4.4810    0.8671   -1.0086 h   0  0  0  0  0  0  0  0  0  0  0  0
   -0.5830    2.9208    1.1492 h   0  0  0  0  0  0  0  0  0  0  0  0
   -3.0770   -0.8294   -1.7353 h   0  0  0  0  0  0  0  0  0  0  0  0
   -1.0341   -1.9888   -1.9392 h   0  0  0  0  0  0  0  0  0  0  0  0
    1.8955   -1.6824    0.2460 h   0  0  0  0  0  0  0  0  0  0  0  0
    1.2941   -2.2727   -1.3344 h   0  0  0  0  0  0  0  0  0  0  0  0
    3.7061   -0.4739   -2.1873 h   0  0  0  0  0  0  0  0  0  0  0  0
    4.9912    1.1278   -0.8976 h   0  0  0  0  0  0  0  0  0  0  0  0
    3.0709    2.7247    0.2626 h   0  0  0  0  0  0  0  0  0  0  0  0
    4.1342    1.7222    1.2917 h   0  0  0  0  0  0  0  0  0  0  0  0
    1.9688    1.2262    3.0157 h   0  0  0  0  0  0  0  0  0  0  0  0
    1.1502    2.4074    1.9488 h   0  0  0  0  0  0  0  0  0  0  0  0
   -0.6280    0.6946    2.5375 h   0  0  0  0  0  0  0  0  0  0  0  0
    0.5829   -0.5807    2.3123 h   0  0  0  0  0  0  0  0  0  0  0  0
   -0.9690   -5.3196    0.4069 h   0  0  0  0  0  0  0  0  0  0  0  0
   -0.7495   -4.4497    1.9558 h   0  0  0  0  0  0  0  0  0  0  0  0
   -2.2622   -4.2552    1.0482 h   0  0  0  0  0  0  0  0  0  0  0  0
  1  2  1  0  0  0  0
  3  4  4  0  0  0  0
  4  5  4  0  0  0  0
  5  6  4  0  0  0  0
  6  7  4  0  0  0  0
  3  8  4  0  0  0  0
  7  8  4  0  0  0  0
  6  9  1  0  0  0  0
  1 10  1  0  0  0  0
  9 10  1  0  0  0  0
 10 11  1  0  0  0  0
  7 12  1  0  0  0  0
 11 12  1  0  0  0  0
 11 13  1  0  0  0  0
  2 14  1  0  0  0  0
 13 14  1  0  0  0  0
 12 15  1  0  0  0  0
 14 15  1  0  0  0  0
 14 16  1  0  0  0  0
 16 17  2  0  0  0  0
 17 18  1  0  0  0  0
 15 19  1  0  0  0  0
 18 19  1  0  0  0  0
 19 20  1  0  0  0  0
 12 21  1  0  0  0  0
 20 21  1  0  0  0  0
 19 22  1  0  0  0  0
 15 23  1  0  0  0  0
 11 24  1  0  0  0  0
 24 25  2  0  0  0  0
 24 26  1  0  0  0  0
 26 27  1  0  0  0  0
  1 28  1  0  0  0  0
  1 29  1  0  0  0  0
  2 30  1  0  0  0  0
  2 31  1  0  0  0  0
  3 32  1  0  0  0  0
  4 33  1  0  0  0  0
  5 34  1  0  0  0  0
  8 35  1  0  0  0  0
  9 36  1  0  0  0  0
 10 37  1  0  0  0  0
 13 38  1  0  0  0  0
 13 39  1  0  0  0  0
 16 40  1  0  0  0  0
 17 41  1  0  0  0  0
 18 42  1  0  0  0  0
 18 43  1  0  0  0  0
 20 44  1  0  0  0  0
 20 45  1  0  0  0  0
 21 46  1  0  0  0  0
 21 47  1  0  0  0  0
 27 48  1  0  0  0  0
 27 49  1  0  0  0  0
 27 50  1  0  0  0  0
M  END
