 xtb: 6.7.1 (edcfbbe)
          08092615283D

 35 36  0     0  0            999 V2000
    0.0942   -0.6288    0.0977 c   0  0  0  0  0  0  0  0  0  0  0  0
   -0.9270    0.3959    0.6546 c   0  0  0  0  0  0  0  0  0  0  0  0
   -0.3084    1.8057    0.7385 c   0  0  0  0  0  0  0  0  0  0  0  0
    0.5865    2.1986   -0.4381 c   0  0  0  0  0  0  0  0  0  0  0  0
    1.5026    1.0352   -0.8240 c   0  0  0  0  0  0  0  0  0  0  0  0
    0.6310   -0.1424   -1.2638 c   0  0  0  0  0  0  0  0  0  0  0  0
    1.3665   -0.6154    0.9632 c   0  0  0  0  0  0  0  0  0  0  0  0
    2.1955    0.5081    0.4051 c   0  0  0  0  0  0  0  0  0  0  0  0
    1.4484   -1.0867   -1.9261 o   0  0  0  0  0  0  0  0  0  0  0  0
   -0.5129   -2.0313    0.0156 c   0  0  0  0  0  0  0  0  0  0  0  0
    3.3295    0.9629    0.9041 c   0  0  0  0  0  0  0  0  0  0  0  0
   -2.2676    0.3685   -0.0503 c   0  0  0  0  0  0  0  0  0  0  0  0
   -2.5458    0.9697   -1.1972 c   0  0  0  0  0  0  0  0  0  0  0  0
   -1.1262    0.0746    1.6827 h   0  0  0  0  0  0  0  0  0  0  0  0
   -0.9402   -2.4440    1.2971 o   0  0  0  0  0  0  0  0  0  0  0  0
   -3.3459   -0.3554    0.7046 c   0  0  0  0  0  0  0  0  0  0  0  0
   -1.1137    2.5353    0.8447 h   0  0  0  0  0  0  0  0  0  0  0  0
    0.2982    1.8534    1.6450 h   0  0  0  0  0  0  0  0  0  0  0  0
   -0.0067    2.4936   -1.3045 h   0  0  0  0  0  0  0  0  0  0  0  0
    1.1936    3.0584   -0.1475 h   0  0  0  0  0  0  0  0  0  0  0  0
    2.2037    1.3294   -1.6062 h   0  0  0  0  0  0  0  0  0  0  0  0
   -0.1810    0.1683   -1.9301 h   0  0  0  0  0  0  0  0  0  0  0  0
    1.9051   -1.5574    0.8395 h   0  0  0  0  0  0  0  0  0  0  0  0
    1.1465   -0.4963    2.0233 h   0  0  0  0  0  0  0  0  0  0  0  0
    0.8922   -1.7654   -2.3190 h   0  0  0  0  0  0  0  0  0  0  0  0
    0.2514   -2.7247   -0.3634 h   0  0  0  0  0  0  0  0  0  0  0  0
   -1.3603   -2.0264   -0.6887 h   0  0  0  0  0  0  0  0  0  0  0  0
    3.7617    0.5494    1.7998 h   0  0  0  0  0  0  0  0  0  0  0  0
    3.8745    1.7639    0.4343 h   0  0  0  0  0  0  0  0  0  0  0  0
   -3.5349    0.9179   -1.6235 h   0  0  0  0  0  0  0  0  0  0  0  0
   -1.8344    1.5486   -1.7564 h   0  0  0  0  0  0  0  0  0  0  0  0
   -1.1816   -3.3746    1.2607 h   0  0  0  0  0  0  0  0  0  0  0  0
   -2.9733   -1.2943    1.1060 h   0  0  0  0  0  0  0  0  0  0  0  0
   -3.6640    0.2558    1.5502 h   0  0  0  0  0  0  0  0  0  0  0  0
   -4.2124   -0.5460    0.0759 h   0  0  0  0  0  0  0  0  0  0  0  0
  1  2  1  0  0  0  0
  2  3  1  0  0  0  0
  3  4  1  0  0  0  0
  4  5  1  0  0  0  0
  1  6  1  0  0  0  0
  5  6  1  0  0  0  0
  1  7  1  0  0  0  0
  5  8  1  0  0  0  0
  7  8  1  0  0  0  0
  6  9  1  0  0  0  0
  1 10  1  0  0  0  0
  8 11  2  0  0  0  0
  2 12  1  0  0  0  0
 12 13  2  0  0  0  0
  2 14  1  0  0  0  0
 10 15  1  0  0  0  0
 12 16  1  0  0  0  0
  3 17  1  0  0  0  0
  3 18  1  0  0  0  0
  4 19  1  0  0  0  0
  4 20  1  0  0  0  0
  5 21  1  0  0  0  0
  6 22  1  0  0  0  0
  7 23  1  0  0  0  0
  7 24  1  0  0  0  0
  9 25  1  0  0  0  0
 10 26  1  0  0  0  0
 10 27  1  0  0  0  0
 11 28  1  0  0  0  0
 11 29  1  0  0  0  0
 13 30  1  0  0  0  0
 13 31  1  0  0  0  0
 15 32  1  0  0  0  0
 16 33  1  0  0  0  0
 16 34  1  0  0  0  0
 16 35  1  0  0  0  0
M  END
