 xtb: 6.7.1 (edcfbbe)
          08092617483D

 35 36  0     0  0            999 V2000
   -0.0696   -0.7871   -0.3499 c   0  0  0  0  0  0  0  0  0  0  0  0
    0.5156    0.5237   -0.9502 c   0  0  0  0  0  0  0  0  0  0  0  0
   -0.4793    1.6880   -0.7805 c   0  0  0  0  0  0  0  0  0  0  0  0
   -1.1933    1.7149    0.5694 c   0  0  0  0  0  0  0  0  0  0  0  0
   -1.7496    0.3270    0.9045 c   0  0  0  0  0  0  0  0  0  0  0  0
   -0.5806   -0.6405    1.1013 c   0  0  0  0  0  0  0  0  0  0  0  0
   -1.4050   -1.0785   -1.0624 c   0  0  0  0  0  0  0  0  0  0  0  0
   -2.4275   -0.2679   -0.3015 c   0  0  0  0  0  0  0  0  0  0  0  0
    0.3452   -0.2265    2.0655 o   0  0  0  0  0  0  0  0  0  0  0  0
    0.9124   -1.9635   -0.4597 c   0  0  0  0  0  0  0  0  0  0  0  0
   -3.6926   -0.1048   -0.6407 c   0  0  0  0  0  0  0  0  0  0  0  0
    1.9282    0.8773   -0.5256 c   0  0  0  0  0  0  0  0  0  0  0  0
    2.9571    0.4543   -1.2544 c   0  0  0  0  0  0  0  0  0  0  0  0
    0.5878    0.3248   -2.0286 h   0  0  0  0  0  0  0  0  0  0  0  0
    1.9547   -1.9129    0.4884 o   0  0  0  0  0  0  0  0  0  0  0  0
    2.1596    1.7500    0.6687 c   0  0  0  0  0  0  0  0  0  0  0  0
    0.0390    2.6333   -0.9499 h   0  0  0  0  0  0  0  0  0  0  0  0
   -1.2405    1.5997   -1.5588 h   0  0  0  0  0  0  0  0  0  0  0  0
   -0.5195    2.0146    1.3701 h   0  0  0  0  0  0  0  0  0  0  0  0
   -2.0120    2.4356    0.5218 h   0  0  0  0  0  0  0  0  0  0  0  0
   -2.3984    0.3818    1.7795 h   0  0  0  0  0  0  0  0  0  0  0  0
   -0.9872   -1.6238    1.3996 h   0  0  0  0  0  0  0  0  0  0  0  0
   -1.3837   -0.8268   -2.1230 h   0  0  0  0  0  0  0  0  0  0  0  0
   -1.6493   -2.1415   -0.9840 h   0  0  0  0  0  0  0  0  0  0  0  0
    1.0684   -0.8716    2.0351 h   0  0  0  0  0  0  0  0  0  0  0  0
    1.3174   -2.0251   -1.4787 h   0  0  0  0  0  0  0  0  0  0  0  0
    0.3814   -2.8969   -0.2488 h   0  0  0  0  0  0  0  0  0  0  0  0
   -4.1040   -0.5493   -1.5314 h   0  0  0  0  0  0  0  0  0  0  0  0
   -4.3678    0.4802   -0.0402 h   0  0  0  0  0  0  0  0  0  0  0  0
    3.9745    0.6964   -0.9937 h   0  0  0  0  0  0  0  0  0  0  0  0
    2.8326   -0.1387   -2.1460 h   0  0  0  0  0  0  0  0  0  0  0  0
    2.5357   -1.1746    0.2476 h   0  0  0  0  0  0  0  0  0  0  0  0
    1.6324    1.3666    1.5376 h   0  0  0  0  0  0  0  0  0  0  0  0
    3.2222    1.8118    0.8928 h   0  0  0  0  0  0  0  0  0  0  0  0
    1.7971    2.7581    0.4729 h   0  0  0  0  0  0  0  0  0  0  0  0
  1  2  1  0  0  0  0
  2  3  1  0  0  0  0
  3  4  1  0  0  0  0
  4  5  1  0  0  0  0
  1  6  1  0  0  0  0
  5  6  1  0  0  0  0
  1  7  1  0  0  0  0
  5  8  1  0  0  0  0
  7  8  1  0  0  0  0
  6  9  1  0  0  0  0
  1 10  1  0  0  0  0
  8 11  2  0  0  0  0
  2 12  1  0  0  0  0
 12 13  2  0  0  0  0
  2 14  1  0  0  0  0
 10 15  1  0  0  0  0
 12 16  1  0  0  0  0
  3 17  1  0  0  0  0
  3 18  1  0  0  0  0
  4 19  1  0  0  0  0
  4 20  1  0  0  0  0
  5 21  1  0  0  0  0
  6 22  1  0  0  0  0
  7 23  1  0  0  0  0
  7 24  1  0  0  0  0
  9 25  1  0  0  0  0
 10 26  1  0  0  0  0
 10 27  1  0  0  0  0
 11 28  1  0  0  0  0
 11 29  1  0  0  0  0
 13 30  1  0  0  0  0
 13 31  1  0  0  0  0
 15 32  1  0  0  0  0
 16 33  1  0  0  0  0
 16 34  1  0  0  0  0
 16 35  1  0  0  0  0
M  END
