 xtb: 6.7.1 (edcfbbe)
          08092616283D

 35 36  0     0  0            999 V2000
    0.0994   -0.6332    0.0973 c   0  0  0  0  0  0  0  0  0  0  0  0
   -0.9220    0.3747    0.6831 c   0  0  0  0  0  0  0  0  0  0  0  0
   -0.3484    1.8097    0.7179 c   0  0  0  0  0  0  0  0  0  0  0  0
    0.5485    2.1936   -0.4596 c   0  0  0  0  0  0  0  0  0  0  0  0
    1.5036    1.0483   -0.8102 c   0  0  0  0  0  0  0  0  0  0  0  0
    0.6572   -0.1466   -1.2571 c   0  0  0  0  0  0  0  0  0  0  0  0
    1.3649   -0.6082    0.9792 c   0  0  0  0  0  0  0  0  0  0  0  0
    2.1906    0.5262    0.4273 c   0  0  0  0  0  0  0  0  0  0  0  0
    1.4108   -1.1287   -1.9395 o   0  0  0  0  0  0  0  0  0  0  0  0
   -0.5105   -2.0380   -0.0174 c   0  0  0  0  0  0  0  0  0  0  0  0
    3.3249    0.9794    0.9302 c   0  0  0  0  0  0  0  0  0  0  0  0
   -2.3151    0.3087    0.0903 c   0  0  0  0  0  0  0  0  0  0  0  0
   -3.3238   -0.1163    0.8414 c   0  0  0  0  0  0  0  0  0  0  0  0
   -1.0476    0.0819    1.7332 h   0  0  0  0  0  0  0  0  0  0  0  0
   -0.9202   -2.5818    1.2181 o   0  0  0  0  0  0  0  0  0  0  0  0
   -2.5695    0.7609   -1.3161 c   0  0  0  0  0  0  0  0  0  0  0  0
   -1.1759    2.5177    0.7976 h   0  0  0  0  0  0  0  0  0  0  0  0
    0.2462    1.9070    1.6283 h   0  0  0  0  0  0  0  0  0  0  0  0
   -0.0395    2.4385   -1.3455 h   0  0  0  0  0  0  0  0  0  0  0  0
    1.1225    3.0817   -0.1877 h   0  0  0  0  0  0  0  0  0  0  0  0
    2.2088    1.3643   -1.5825 h   0  0  0  0  0  0  0  0  0  0  0  0
   -0.1184    0.1328   -1.9675 h   0  0  0  0  0  0  0  0  0  0  0  0
    1.9036   -1.5561    0.8964 h   0  0  0  0  0  0  0  0  0  0  0  0
    1.1333   -0.4718    2.0354 h   0  0  0  0  0  0  0  0  0  0  0  0
    2.1823   -1.3438   -1.3990 h   0  0  0  0  0  0  0  0  0  0  0  0
    0.2376   -2.7313   -0.4101 h   0  0  0  0  0  0  0  0  0  0  0  0
   -1.3515   -2.0152   -0.7220 h   0  0  0  0  0  0  0  0  0  0  0  0
    3.7553    0.5625    1.8256 h   0  0  0  0  0  0  0  0  0  0  0  0
    3.8662    1.7883    0.4691 h   0  0  0  0  0  0  0  0  0  0  0  0
   -4.3329   -0.1589    0.4657 h   0  0  0  0  0  0  0  0  0  0  0  0
   -3.1979   -0.4282    1.8662 h   0  0  0  0  0  0  0  0  0  0  0  0
   -1.6801   -2.0718    1.5271 h   0  0  0  0  0  0  0  0  0  0  0  0
   -2.0820    1.7112   -1.5150 h   0  0  0  0  0  0  0  0  0  0  0  0
   -2.1989    0.0289   -2.0327 h   0  0  0  0  0  0  0  0  0  0  0  0
   -3.6381    0.8781   -1.4827 h   0  0  0  0  0  0  0  0  0  0  0  0
  1  2  1  0  0  0  0
  2  3  1  0  0  0  0
  3  4  1  0  0  0  0
  4  5  1  0  0  0  0
  1  6  1  0  0  0  0
  5  6  1  0  0  0  0
  1  7  1  0  0  0  0
  5  8  1  0  0  0  0
  7  8  1  0  0  0  0
  6  9  1  0  0  0  0
  1 10  1  0  0  0  0
  8 11  2  0  0  0  0
  2 12  1  0  0  0  0
 12 13  2  0  0  0  0
  2 14  1  0  0  0  0
 10 15  1  0  0  0  0
 12 16  1  0  0  0  0
  3 17  1  0  0  0  0
  3 18  1  0  0  0  0
  4 19  1  0  0  0  0
  4 20  1  0  0  0  0
  5 21  1  0  0  0  0
  6 22  1  0  0  0  0
  7 23  1  0  0  0  0
  7 24  1  0  0  0  0
  9 25  1  0  0  0  0
 10 26  1  0  0  0  0
 10 27  1  0  0  0  0
 11 28  1  0  0  0  0
 11 29  1  0  0  0  0
 13 30  1  0  0  0  0
 13 31  1  0  0  0  0
 15 32  1  0  0  0  0
 16 33  1  0  0  0  0
 16 34  1  0  0  0  0
 16 35  1  0  0  0  0
M  END
