 xtb: 6.7.1 (edcfbbe)
          08092604353D

 42 44  0     0  0            999 V2000
   -0.9617   -1.5392   -0.0047 c   0  0  0  0  0  0  0  0  0  0  0  0
   -2.2481   -1.0278    0.6592 c   0  0  0  0  0  0  0  0  0  0  0  0
   -2.9893    0.0556   -0.1329 c   0  0  0  0  0  0  0  0  0  0  0  0
   -2.5494    1.4809    0.2053 c   0  0  0  0  0  0  0  0  0  0  0  0
   -1.1711    1.8942   -0.3172 c   0  0  0  0  0  0  0  0  0  0  0  0
   -0.0914    0.9104    0.1348 c   0  0  0  0  0  0  0  0  0  0  0  0
   -0.1081   -0.4251   -0.6230 c   0  0  0  0  0  0  0  0  0  0  0  0
    0.0013   -2.1807    1.0073 c   0  0  0  0  0  0  0  0  0  0  0  0
    1.3674   -2.1505    0.3210 c   0  0  0  0  0  0  0  0  0  0  0  0
    1.3631   -0.8874   -0.5556 c   0  0  0  0  0  0  0  0  0  0  0  0
    1.1953    1.4382   -0.1233 o   0  0  0  0  0  0  0  0  0  0  0  0
    2.1387    0.3697   -0.0608 c   0  0  0  0  0  0  0  0  0  0  0  0
   -0.4053   -0.2269   -1.6551 h   0  0  0  0  0  0  0  0  0  0  0  0
    1.7360   -1.1361   -1.5512 h   0  0  0  0  0  0  0  0  0  0  0  0
   -0.1969    0.7393    1.2174 h   0  0  0  0  0  0  0  0  0  0  0  0
   -0.8381    3.3044    0.1673 c   0  0  0  0  0  0  0  0  0  0  0  0
    3.2837    0.7235   -1.0113 c   0  0  0  0  0  0  0  0  0  0  0  0
    2.6861    0.2668    1.3682 c   0  0  0  0  0  0  0  0  0  0  0  0
   -1.3276   -2.5566   -1.0904 c   0  0  0  0  0  0  0  0  0  0  0  0
   -2.9114   -1.8849    0.7987 h   0  0  0  0  0  0  0  0  0  0  0  0
   -2.0257   -0.6372    1.6542 h   0  0  0  0  0  0  0  0  0  0  0  0
   -2.8801   -0.1170   -1.2039 h   0  0  0  0  0  0  0  0  0  0  0  0
   -4.0547   -0.0207    0.0993 h   0  0  0  0  0  0  0  0  0  0  0  0
   -2.5644    1.6034    1.2917 h   0  0  0  0  0  0  0  0  0  0  0  0
   -3.2839    2.1765   -0.2086 h   0  0  0  0  0  0  0  0  0  0  0  0
   -1.1858    1.9014   -1.4126 h   0  0  0  0  0  0  0  0  0  0  0  0
   -0.3009   -3.1917    1.2790 h   0  0  0  0  0  0  0  0  0  0  0  0
    0.0278   -1.5826    1.9198 h   0  0  0  0  0  0  0  0  0  0  0  0
    2.1834   -2.1684    1.0385 h   0  0  0  0  0  0  0  0  0  0  0  0
    1.4779   -3.0290   -0.3160 h   0  0  0  0  0  0  0  0  0  0  0  0
   -0.8173    3.3354    1.2546 h   0  0  0  0  0  0  0  0  0  0  0  0
    0.1389    3.5994   -0.2027 h   0  0  0  0  0  0  0  0  0  0  0  0
   -1.5833    4.0133   -0.1868 h   0  0  0  0  0  0  0  0  0  0  0  0
    3.7707    1.6352   -0.6762 h   0  0  0  0  0  0  0  0  0  0  0  0
    2.8953    0.8924   -2.0124 h   0  0  0  0  0  0  0  0  0  0  0  0
    4.0129   -0.0820   -1.0389 h   0  0  0  0  0  0  0  0  0  0  0  0
    3.0380    1.2513    1.6683 h   0  0  0  0  0  0  0  0  0  0  0  0
    1.9152   -0.0454    2.0666 h   0  0  0  0  0  0  0  0  0  0  0  0
    3.5198   -0.4282    1.4166 h   0  0  0  0  0  0  0  0  0  0  0  0
   -1.7935   -3.4343   -0.6467 h   0  0  0  0  0  0  0  0  0  0  0  0
   -2.0285   -2.1236   -1.8004 h   0  0  0  0  0  0  0  0  0  0  0  0
   -0.4453   -2.8754   -1.6382 h   0  0  0  0  0  0  0  0  0  0  0  0
  1  2  1  0  0  0  0
  2  3  1  0  0  0  0
  3  4  1  0  0  0  0
  4  5  1  0  0  0  0
  5  6  1  0  0  0  0
  1  7  1  0  0  0  0
  6  7  1  0  0  0  0
  1  8  1  0  0  0  0
  8  9  1  0  0  0  0
  7 10  1  0  0  0  0
  9 10  1  0  0  0  0
  6 11  1  0  0  0  0
 10 12  1  0  0  0  0
 11 12  1  0  0  0  0
  7 13  1  0  0  0  0
 10 14  1  0  0  0  0
  6 15  1  0  0  0  0
  5 16  1  0  0  0  0
 12 17  1  0  0  0  0
 12 18  1  0  0  0  0
  1 19  1  0  0  0  0
  2 20  1  0  0  0  0
  2 21  1  0  0  0  0
  3 22  1  0  0  0  0
  3 23  1  0  0  0  0
  4 24  1  0  0  0  0
  4 25  1  0  0  0  0
  5 26  1  0  0  0  0
  8 27  1  0  0  0  0
  8 28  1  0  0  0  0
  9 29  1  0  0  0  0
  9 30  1  0  0  0  0
 16 31  1  0  0  0  0
 16 32  1  0  0  0  0
 16 33  1  0  0  0  0
 17 34  1  0  0  0  0
 17 35  1  0  0  0  0
 17 36  1  0  0  0  0
 18 37  1  0  0  0  0
 18 38  1  0  0  0  0
 18 39  1  0  0  0  0
 19 40  1  0  0  0  0
 19 41  1  0  0  0  0
 19 42  1  0  0  0  0
M  END
