 xtb: 6.7.1 (edcfbbe)
          08092620033D

 50 55  0     0  0            999 V2000
    0.0246    0.4946    2.5765 c   0  0  0  0  0  0  0  0  0  0  0  0
    1.5255    0.7433    2.4232 c   0  0  0  0  0  0  0  0  0  0  0  0
   -2.1952   -3.2296   -0.2281 c   0  0  0  0  0  0  0  0  0  0  0  0
   -3.2600   -2.7809    0.5352 c   0  0  0  0  0  0  0  0  0  0  0  0
   -3.2291   -1.5121    1.0760 c   0  0  0  0  0  0  0  0  0  0  0  0
   -2.1548   -0.6575    0.8329 c   0  0  0  0  0  0  0  0  0  0  0  0
   -1.1142   -1.0825   -0.0032 c   0  0  0  0  0  0  0  0  0  0  0  0
   -1.1346   -2.3824   -0.4917 c   0  0  0  0  0  0  0  0  0  0  0  0
   -2.1443    0.6049    1.4081 n   0  0  0  0  0  0  0  0  0  0  0  0
   -0.8589    1.2397    1.5510 c   0  0  0  0  0  0  0  0  0  0  0  0
   -0.2119    1.2746    0.1512 c   0  0  0  0  0  0  0  0  0  0  0  0
    0.0353   -0.1613   -0.3544 c   0  0  0  0  0  0  0  0  0  0  0  0
    1.1825    1.8706    0.2688 c   0  0  0  0  0  0  0  0  0  0  0  0
    1.9432    0.7191    0.9422 c   0  0  0  0  0  0  0  0  0  0  0  0
    1.3861   -0.5703    0.2990 c   0  0  0  0  0  0  0  0  0  0  0  0
    3.4190    0.8960    0.7989 c   0  0  0  0  0  0  0  0  0  0  0  0
    4.1808    0.0539    0.1237 c   0  0  0  0  0  0  0  0  0  0  0  0
    3.6502   -1.1892   -0.5014 c   0  0  0  0  0  0  0  0  0  0  0  0
    2.1951   -1.1840   -0.8044 n   0  0  0  0  0  0  0  0  0  0  0  0
    1.8689   -0.3460   -1.9831 c   0  0  0  0  0  0  0  0  0  0  0  0
    0.3598   -0.1577   -1.8717 c   0  0  0  0  0  0  0  0  0  0  0  0
    1.8160   -2.4379   -1.0168 o   0  0  0  0  0  0  0  0  0  0  0  0
    1.2768   -1.3740    1.0285 h   0  0  0  0  0  0  0  0  0  0  0  0
   -1.1103    2.1118   -0.7439 c   0  0  0  0  0  0  0  0  0  0  0  0
   -0.8988    3.2707   -1.0010 o   0  0  0  0  0  0  0  0  0  0  0  0
   -2.1656    1.4375   -1.1890 o   0  0  0  0  0  0  0  0  0  0  0  0
   -3.0886    2.1618   -1.9878 c   0  0  0  0  0  0  0  0  0  0  0  0
   -0.2892    0.7805    3.5832 h   0  0  0  0  0  0  0  0  0  0  0  0
   -0.1789   -0.5724    2.4660 h   0  0  0  0  0  0  0  0  0  0  0  0
    1.7910    1.7154    2.8440 h   0  0  0  0  0  0  0  0  0  0  0  0
    2.0741   -0.0200    2.9797 h   0  0  0  0  0  0  0  0  0  0  0  0
   -2.1884   -4.2365   -0.6164 h   0  0  0  0  0  0  0  0  0  0  0  0
   -4.1024   -3.4276    0.7341 h   0  0  0  0  0  0  0  0  0  0  0  0
   -4.0375   -1.1661    1.7060 h   0  0  0  0  0  0  0  0  0  0  0  0
   -0.2725   -2.7424   -1.0371 h   0  0  0  0  0  0  0  0  0  0  0  0
   -2.7753    0.7124    2.1889 h   0  0  0  0  0  0  0  0  0  0  0  0
   -1.0186    2.2742    1.8801 h   0  0  0  0  0  0  0  0  0  0  0  0
    1.1921    2.7785    0.8700 h   0  0  0  0  0  0  0  0  0  0  0  0
    1.5817    2.1217   -0.7128 h   0  0  0  0  0  0  0  0  0  0  0  0
    3.8316    1.7842    1.2551 h   0  0  0  0  0  0  0  0  0  0  0  0
    5.2451    0.2116    0.0255 h   0  0  0  0  0  0  0  0  0  0  0  0
    4.1625   -1.4225   -1.4376 h   0  0  0  0  0  0  0  0  0  0  0  0
    3.7987   -2.0464    0.1651 h   0  0  0  0  0  0  0  0  0  0  0  0
    2.4215    0.5936   -1.9336 h   0  0  0  0  0  0  0  0  0  0  0  0
    2.1531   -0.9014   -2.8766 h   0  0  0  0  0  0  0  0  0  0  0  0
   -0.1499   -0.9892   -2.3542 h   0  0  0  0  0  0  0  0  0  0  0  0
    0.0472    0.7662   -2.3550 h   0  0  0  0  0  0  0  0  0  0  0  0
   -3.4547    3.0363   -1.4464 h   0  0  0  0  0  0  0  0  0  0  0  0
   -2.6120    2.4965   -2.9119 h   0  0  0  0  0  0  0  0  0  0  0  0
   -3.9021    1.4749   -2.2045 h   0  0  0  0  0  0  0  0  0  0  0  0
  1  2  1  0  0  0  0
  3  4  4  0  0  0  0
  4  5  4  0  0  0  0
  5  6  4  0  0  0  0
  6  7  4  0  0  0  0
  3  8  4  0  0  0  0
  7  8  4  0  0  0  0
  6  9  1  0  0  0  0
  1 10  1  0  0  0  0
  9 10  1  0  0  0  0
 10 11  1  0  0  0  0
  7 12  1  0  0  0  0
 11 12  1  0  0  0  0
 11 13  1  0  0  0  0
  2 14  1  0  0  0  0
 13 14  1  0  0  0  0
 12 15  1  0  0  0  0
 14 15  1  0  0  0  0
 14 16  1  0  0  0  0
 16 17  2  0  0  0  0
 17 18  1  0  0  0  0
 15 19  1  0  0  0  0
 18 19  1  0  0  0  0
 19 20  1  0  0  0  0
 12 21  1  0  0  0  0
 20 21  1  0  0  0  0
 19 22  1  0  0  0  0
 15 23  1  0  0  0  0
 11 24  1  0  0  0  0
 24 25  2  0  0  0  0
 24 26  1  0  0  0  0
 26 27  1  0  0  0  0
  1 28  1  0  0  0  0
  1 29  1  0  0  0  0
  2 30  1  0  0  0  0
  2 31  1  0  0  0  0
  3 32  1  0  0  0  0
  4 33  1  0  0  0  0
  5 34  1  0  0  0  0
  8 35  1  0  0  0  0
  9 36  1  0  0  0  0
 10 37  1  0  0  0  0
 13 38  1  0  0  0  0
 13 39  1  0  0  0  0
 16 40  1  0  0  0  0
 17 41  1  0  0  0  0
 18 42  1  0  0  0  0
 18 43  1  0  0  0  0
 20 44  1  0  0  0  0
 20 45  1  0  0  0  0
 21 46  1  0  0  0  0
 21 47  1  0  0  0  0
 27 48  1  0  0  0  0
 27 49  1  0  0  0  0
 27 50  1  0  0  0  0
M  END
