 xtb: 6.7.1 (edcfbbe)
          08092617053D

 35 36  0     0  0            999 V2000
    0.1126   -0.5614    0.4493 c   0  0  0  0  0  0  0  0  0  0  0  0
   -0.9158    0.5591    0.7455 c   0  0  0  0  0  0  0  0  0  0  0  0
   -0.3414    1.9591    0.4307 c   0  0  0  0  0  0  0  0  0  0  0  0
    0.5787    2.0408   -0.7889 c   0  0  0  0  0  0  0  0  0  0  0  0
    1.5349    0.8438   -0.8248 c   0  0  0  0  0  0  0  0  0  0  0  0
    0.6841   -0.4170   -0.9725 c   0  0  0  0  0  0  0  0  0  0  0  0
    1.3700   -0.3181    1.3087 c   0  0  0  0  0  0  0  0  0  0  0  0
    2.1947    0.6610    0.5177 c   0  0  0  0  0  0  0  0  0  0  0  0
    1.4399   -1.5806   -1.2914 o   0  0  0  0  0  0  0  0  0  0  0  0
   -0.4947   -1.9551    0.6984 c   0  0  0  0  0  0  0  0  0  0  0  0
    3.3073    1.2506    0.9159 c   0  0  0  0  0  0  0  0  0  0  0  0
   -2.2976    0.3365    0.1665 c   0  0  0  0  0  0  0  0  0  0  0  0
   -3.3064    0.0632    0.9828 c   0  0  0  0  0  0  0  0  0  0  0  0
   -1.0620    0.5264    1.8318 h   0  0  0  0  0  0  0  0  0  0  0  0
   -1.1866   -2.4753   -0.4158 o   0  0  0  0  0  0  0  0  0  0  0  0
   -2.5419    0.4533   -1.3079 c   0  0  0  0  0  0  0  0  0  0  0  0
   -1.1693    2.6612    0.3145 h   0  0  0  0  0  0  0  0  0  0  0  0
    0.2361    2.2823    1.2988 h   0  0  0  0  0  0  0  0  0  0  0  0
    0.0067    2.0616   -1.7183 h   0  0  0  0  0  0  0  0  0  0  0  0
    1.1532    2.9675   -0.7338 h   0  0  0  0  0  0  0  0  0  0  0  0
    2.2586    0.9619   -1.6366 h   0  0  0  0  0  0  0  0  0  0  0  0
   -0.0938   -0.2860   -1.7313 h   0  0  0  0  0  0  0  0  0  0  0  0
    1.9293   -1.2505    1.4171 h   0  0  0  0  0  0  0  0  0  0  0  0
    1.1316    0.0460    2.3074 h   0  0  0  0  0  0  0  0  0  0  0  0
    2.0321   -1.3672   -2.0226 h   0  0  0  0  0  0  0  0  0  0  0  0
   -1.2279   -1.9070    1.5060 h   0  0  0  0  0  0  0  0  0  0  0  0
    0.3017   -2.6524    0.9880 h   0  0  0  0  0  0  0  0  0  0  0  0
    3.7180    1.0821    1.8972 h   0  0  0  0  0  0  0  0  0  0  0  0
    3.8513    1.9268    0.2779 h   0  0  0  0  0  0  0  0  0  0  0  0
   -4.3080   -0.0875    0.6156 h   0  0  0  0  0  0  0  0  0  0  0  0
   -3.1795   -0.0346    2.0485 h   0  0  0  0  0  0  0  0  0  0  0  0
   -0.5247   -2.6164   -1.1071 h   0  0  0  0  0  0  0  0  0  0  0  0
   -3.6035    0.5944   -1.4989 h   0  0  0  0  0  0  0  0  0  0  0  0
   -1.9977    1.2877   -1.7408 h   0  0  0  0  0  0  0  0  0  0  0  0
   -2.2377   -0.4673   -1.8047 h   0  0  0  0  0  0  0  0  0  0  0  0
  1  2  1  0  0  0  0
  2  3  1  0  0  0  0
  3  4  1  0  0  0  0
  4  5  1  0  0  0  0
  1  6  1  0  0  0  0
  5  6  1  0  0  0  0
  1  7  1  0  0  0  0
  5  8  1  0  0  0  0
  7  8  1  0  0  0  0
  6  9  1  0  0  0  0
  1 10  1  0  0  0  0
  8 11  2  0  0  0  0
  2 12  1  0  0  0  0
 12 13  2  0  0  0  0
  2 14  1  0  0  0  0
 10 15  1  0  0  0  0
 12 16  1  0  0  0  0
  3 17  1  0  0  0  0
  3 18  1  0  0  0  0
  4 19  1  0  0  0  0
  4 20  1  0  0  0  0
  5 21  1  0  0  0  0
  6 22  1  0  0  0  0
  7 23  1  0  0  0  0
  7 24  1  0  0  0  0
  9 25  1  0  0  0  0
 10 26  1  0  0  0  0
 10 27  1  0  0  0  0
 11 28  1  0  0  0  0
 11 29  1  0  0  0  0
 13 30  1  0  0  0  0
 13 31  1  0  0  0  0
 15 32  1  0  0  0  0
 16 33  1  0  0  0  0
 16 34  1  0  0  0  0
 16 35  1  0  0  0  0
M  END
