 xtb: 6.7.1 (edcfbbe)
          08092617053D

 35 36  0     0  0            999 V2000
    0.0927   -0.6174    0.0959 c   0  0  0  0  0  0  0  0  0  0  0  0
   -0.9360    0.3999    0.6525 c   0  0  0  0  0  0  0  0  0  0  0  0
   -0.3233    1.8122    0.7419 c   0  0  0  0  0  0  0  0  0  0  0  0
    0.5743    2.2075   -0.4314 c   0  0  0  0  0  0  0  0  0  0  0  0
    1.5013    1.0502   -0.8151 c   0  0  0  0  0  0  0  0  0  0  0  0
    0.6381   -0.1345   -1.2566 c   0  0  0  0  0  0  0  0  0  0  0  0
    1.3604   -0.6010    0.9708 c   0  0  0  0  0  0  0  0  0  0  0  0
    2.1957    0.5186    0.4134 c   0  0  0  0  0  0  0  0  0  0  0  0
    1.3991   -1.1700   -1.8607 o   0  0  0  0  0  0  0  0  0  0  0  0
   -0.5027   -2.0216   -0.0157 c   0  0  0  0  0  0  0  0  0  0  0  0
    3.3417    0.9586    0.9006 c   0  0  0  0  0  0  0  0  0  0  0  0
   -2.2768    0.3661   -0.0528 c   0  0  0  0  0  0  0  0  0  0  0  0
   -2.5565    0.9662   -1.2003 c   0  0  0  0  0  0  0  0  0  0  0  0
   -1.1335    0.0729    1.6791 h   0  0  0  0  0  0  0  0  0  0  0  0
   -0.9038   -2.4798    1.2650 o   0  0  0  0  0  0  0  0  0  0  0  0
   -3.3511   -0.3633    0.7029 c   0  0  0  0  0  0  0  0  0  0  0  0
   -1.1311    2.5394    0.8433 h   0  0  0  0  0  0  0  0  0  0  0  0
    0.2782    1.8617    1.6514 h   0  0  0  0  0  0  0  0  0  0  0  0
   -0.0182    2.4934   -1.3014 h   0  0  0  0  0  0  0  0  0  0  0  0
    1.1739    3.0729   -0.1419 h   0  0  0  0  0  0  0  0  0  0  0  0
    2.2048    1.3688   -1.5896 h   0  0  0  0  0  0  0  0  0  0  0  0
   -0.1657    0.1580   -1.9419 h   0  0  0  0  0  0  0  0  0  0  0  0
    1.8938   -1.5471    0.8556 h   0  0  0  0  0  0  0  0  0  0  0  0
    1.1327   -0.4755    2.0283 h   0  0  0  0  0  0  0  0  0  0  0  0
    1.9118   -0.7814   -2.5808 h   0  0  0  0  0  0  0  0  0  0  0  0
    0.2599   -2.6850   -0.4389 h   0  0  0  0  0  0  0  0  0  0  0  0
   -1.3610   -2.0001   -0.7012 h   0  0  0  0  0  0  0  0  0  0  0  0
    3.7762    0.5395    1.7926 h   0  0  0  0  0  0  0  0  0  0  0  0
    3.8907    1.7564    0.4289 h   0  0  0  0  0  0  0  0  0  0  0  0
   -3.5446    0.9098   -1.6287 h   0  0  0  0  0  0  0  0  0  0  0  0
   -1.8449    1.5445   -1.7603 h   0  0  0  0  0  0  0  0  0  0  0  0
   -1.1279   -3.4148    1.1952 h   0  0  0  0  0  0  0  0  0  0  0  0
   -3.6647    0.2409    1.5552 h   0  0  0  0  0  0  0  0  0  0  0  0
   -4.2200   -0.5510    0.0769 h   0  0  0  0  0  0  0  0  0  0  0  0
   -2.9744   -1.3051    1.0937 h   0  0  0  0  0  0  0  0  0  0  0  0
  1  2  1  0  0  0  0
  2  3  1  0  0  0  0
  3  4  1  0  0  0  0
  4  5  1  0  0  0  0
  1  6  1  0  0  0  0
  5  6  1  0  0  0  0
  1  7  1  0  0  0  0
  5  8  1  0  0  0  0
  7  8  1  0  0  0  0
  6  9  1  0  0  0  0
  1 10  1  0  0  0  0
  8 11  2  0  0  0  0
  2 12  1  0  0  0  0
 12 13  2  0  0  0  0
  2 14  1  0  0  0  0
 10 15  1  0  0  0  0
 12 16  1  0  0  0  0
  3 17  1  0  0  0  0
  3 18  1  0  0  0  0
  4 19  1  0  0  0  0
  4 20  1  0  0  0  0
  5 21  1  0  0  0  0
  6 22  1  0  0  0  0
  7 23  1  0  0  0  0
  7 24  1  0  0  0  0
  9 25  1  0  0  0  0
 10 26  1  0  0  0  0
 10 27  1  0  0  0  0
 11 28  1  0  0  0  0
 11 29  1  0  0  0  0
 13 30  1  0  0  0  0
 13 31  1  0  0  0  0
 15 32  1  0  0  0  0
 16 33  1  0  0  0  0
 16 34  1  0  0  0  0
 16 35  1  0  0  0  0
M  END
