 xtb: 6.7.1 (edcfbbe)
          08092622443D

 50 55  0     0  0            999 V2000
   -0.4332   -0.5624   -2.7156 c   0  0  0  0  0  0  0  0  0  0  0  0
    0.7060    0.4285   -2.4600 c   0  0  0  0  0  0  0  0  0  0  0  0
   -2.4556    3.3082    0.5588 c   0  0  0  0  0  0  0  0  0  0  0  0
   -3.5345    2.8645   -0.1882 c   0  0  0  0  0  0  0  0  0  0  0  0
   -3.4948    1.6103   -0.7562 c   0  0  0  0  0  0  0  0  0  0  0  0
   -2.3871    0.7753   -0.5817 c   0  0  0  0  0  0  0  0  0  0  0  0
   -1.3085    1.1986    0.2040 c   0  0  0  0  0  0  0  0  0  0  0  0
   -1.3681    2.4750    0.7508 c   0  0  0  0  0  0  0  0  0  0  0  0
   -2.3849   -0.4708   -1.1514 n   0  0  0  0  0  0  0  0  0  0  0  0
   -1.1393   -1.1184   -1.4498 c   0  0  0  0  0  0  0  0  0  0  0  0
   -0.2055   -1.1000   -0.2123 c   0  0  0  0  0  0  0  0  0  0  0  0
   -0.1246    0.2948    0.4901 c   0  0  0  0  0  0  0  0  0  0  0  0
    1.2036   -1.3713   -0.7701 c   0  0  0  0  0  0  0  0  0  0  0  0
    1.5931    0.0351   -1.2566 c   0  0  0  0  0  0  0  0  0  0  0  0
    1.1904    0.8626   -0.0538 c   0  0  0  0  0  0  0  0  0  0  0  0
    3.0509    0.2879   -1.5124 c   0  0  0  0  0  0  0  0  0  0  0  0
    3.8068    1.0259   -0.7095 c   0  0  0  0  0  0  0  0  0  0  0  0
    3.3426    1.5905    0.6090 c   0  0  0  0  0  0  0  0  0  0  0  0
    2.2103    0.7510    1.0506 n   0  0  0  0  0  0  0  0  0  0  0  0
    1.3945    1.1621    2.2116 c   0  0  0  0  0  0  0  0  0  0  0  0
    0.1602    0.2709    2.0203 c   0  0  0  0  0  0  0  0  0  0  0  0
    2.7091   -0.4734    1.3284 o   0  0  0  0  0  0  0  0  0  0  0  0
    1.1143    1.9259   -0.2845 h   0  0  0  0  0  0  0  0  0  0  0  0
   -0.7329   -2.1806    0.7055 c   0  0  0  0  0  0  0  0  0  0  0  0
   -1.6029   -2.0281    1.5337 o   0  0  0  0  0  0  0  0  0  0  0  0
   -0.1786   -3.3616    0.4443 o   0  0  0  0  0  0  0  0  0  0  0  0
   -0.6313   -4.4754    1.2139 c   0  0  0  0  0  0  0  0  0  0  0  0
   -0.0423   -1.4069   -3.2837 h   0  0  0  0  0  0  0  0  0  0  0  0
   -1.1866   -0.0776   -3.3403 h   0  0  0  0  0  0  0  0  0  0  0  0
    1.3175    0.4846   -3.3626 h   0  0  0  0  0  0  0  0  0  0  0  0
    0.2927    1.4238   -2.2866 h   0  0  0  0  0  0  0  0  0  0  0  0
   -2.4632    4.2939    0.9989 h   0  0  0  0  0  0  0  0  0  0  0  0
   -4.3968    3.4982   -0.3343 h   0  0  0  0  0  0  0  0  0  0  0  0
   -4.3252    1.2524   -1.3487 h   0  0  0  0  0  0  0  0  0  0  0  0
   -0.5520    2.8398    1.3528 h   0  0  0  0  0  0  0  0  0  0  0  0
   -3.1351   -0.6504   -1.8020 h   0  0  0  0  0  0  0  0  0  0  0  0
   -1.3799   -2.1706   -1.6523 h   0  0  0  0  0  0  0  0  0  0  0  0
    1.8846   -1.6713    0.0260 h   0  0  0  0  0  0  0  0  0  0  0  0
    1.2053   -2.1278   -1.5485 h   0  0  0  0  0  0  0  0  0  0  0  0
    3.4681   -0.1416   -2.4114 h   0  0  0  0  0  0  0  0  0  0  0  0
    4.8456    1.2044   -0.9447 h   0  0  0  0  0  0  0  0  0  0  0  0
    3.0482    2.6412    0.5297 h   0  0  0  0  0  0  0  0  0  0  0  0
    4.1369    1.4870    1.3513 h   0  0  0  0  0  0  0  0  0  0  0  0
    1.9387    0.9245    3.1245 h   0  0  0  0  0  0  0  0  0  0  0  0
    1.1717    2.2273    2.1673 h   0  0  0  0  0  0  0  0  0  0  0  0
   -0.6964    0.6050    2.6001 h   0  0  0  0  0  0  0  0  0  0  0  0
    0.4294   -0.7351    2.3390 h   0  0  0  0  0  0  0  0  0  0  0  0
   -0.1891   -5.3542    0.7530 h   0  0  0  0  0  0  0  0  0  0  0  0
   -0.2977   -4.3745    2.2479 h   0  0  0  0  0  0  0  0  0  0  0  0
   -1.7215   -4.5267    1.1960 h   0  0  0  0  0  0  0  0  0  0  0  0
  1  2  1  0  0  0  0
  3  4  4  0  0  0  0
  4  5  4  0  0  0  0
  5  6  4  0  0  0  0
  6  7  4  0  0  0  0
  3  8  4  0  0  0  0
  7  8  4  0  0  0  0
  6  9  1  0  0  0  0
  1 10  1  0  0  0  0
  9 10  1  0  0  0  0
 10 11  1  0  0  0  0
  7 12  1  0  0  0  0
 11 12  1  0  0  0  0
 11 13  1  0  0  0  0
  2 14  1  0  0  0  0
 13 14  1  0  0  0  0
 12 15  1  0  0  0  0
 14 15  1  0  0  0  0
 14 16  1  0  0  0  0
 16 17  2  0  0  0  0
 17 18  1  0  0  0  0
 15 19  1  0  0  0  0
 18 19  1  0  0  0  0
 19 20  1  0  0  0  0
 12 21  1  0  0  0  0
 20 21  1  0  0  0  0
 19 22  1  0  0  0  0
 15 23  1  0  0  0  0
 11 24  1  0  0  0  0
 24 25  2  0  0  0  0
 24 26  1  0  0  0  0
 26 27  1  0  0  0  0
  1 28  1  0  0  0  0
  1 29  1  0  0  0  0
  2 30  1  0  0  0  0
  2 31  1  0  0  0  0
  3 32  1  0  0  0  0
  4 33  1  0  0  0  0
  5 34  1  0  0  0  0
  8 35  1  0  0  0  0
  9 36  1  0  0  0  0
 10 37  1  0  0  0  0
 13 38  1  0  0  0  0
 13 39  1  0  0  0  0
 16 40  1  0  0  0  0
 17 41  1  0  0  0  0
 18 42  1  0  0  0  0
 18 43  1  0  0  0  0
 20 44  1  0  0  0  0
 20 45  1  0  0  0  0
 21 46  1  0  0  0  0
 21 47  1  0  0  0  0
 27 48  1  0  0  0  0
 27 49  1  0  0  0  0
 27 50  1  0  0  0  0
M  END
