 xtb: 6.7.1 (edcfbbe)
          08092618423D

 35 36  0     0  0            999 V2000
    0.1119   -0.6899   -0.2601 c   0  0  0  0  0  0  0  0  0  0  0  0
    0.5988    0.6248   -0.9312 c   0  0  0  0  0  0  0  0  0  0  0  0
   -0.4898    1.7121   -0.8448 c   0  0  0  0  0  0  0  0  0  0  0  0
   -1.2247    1.7556    0.4928 c   0  0  0  0  0  0  0  0  0  0  0  0
   -1.6823    0.3484    0.8939 c   0  0  0  0  0  0  0  0  0  0  0  0
   -0.4422   -0.5123    1.1663 c   0  0  0  0  0  0  0  0  0  0  0  0
   -1.1824   -1.1407   -0.9690 c   0  0  0  0  0  0  0  0  0  0  0  0
   -2.2854   -0.3773   -0.2818 c   0  0  0  0  0  0  0  0  0  0  0  0
    0.4759   -0.0015    2.1052 o   0  0  0  0  0  0  0  0  0  0  0  0
    1.2097   -1.7621   -0.3432 c   0  0  0  0  0  0  0  0  0  0  0  0
   -3.5566   -0.3495   -0.6388 c   0  0  0  0  0  0  0  0  0  0  0  0
    1.9795    1.1122   -0.5313 c   0  0  0  0  0  0  0  0  0  0  0  0
    3.0301    0.7592   -1.2606 c   0  0  0  0  0  0  0  0  0  0  0  0
    0.6974    0.3646   -1.9926 h   0  0  0  0  0  0  0  0  0  0  0  0
    0.8100   -3.0251    0.1492 o   0  0  0  0  0  0  0  0  0  0  0  0
    2.1506    2.0369    0.6340 c   0  0  0  0  0  0  0  0  0  0  0  0
   -0.0454    2.6850   -1.0601 h   0  0  0  0  0  0  0  0  0  0  0  0
   -1.2281    1.5186   -1.6255 h   0  0  0  0  0  0  0  0  0  0  0  0
   -0.5768    2.1488    1.2768 h   0  0  0  0  0  0  0  0  0  0  0  0
   -2.0918    2.4130    0.4035 h   0  0  0  0  0  0  0  0  0  0  0  0
   -2.3589    0.3997    1.7514 h   0  0  0  0  0  0  0  0  0  0  0  0
   -0.7848   -1.5023    1.5169 h   0  0  0  0  0  0  0  0  0  0  0  0
   -1.1570   -0.9603   -2.0430 h   0  0  0  0  0  0  0  0  0  0  0  0
   -1.3174   -2.2157   -0.8188 h   0  0  0  0  0  0  0  0  0  0  0  0
   -0.0033    0.1734    2.9248 h   0  0  0  0  0  0  0  0  0  0  0  0
    2.1012   -1.4102    0.1872 h   0  0  0  0  0  0  0  0  0  0  0  0
    1.4688   -1.9315   -1.3908 h   0  0  0  0  0  0  0  0  0  0  0  0
   -3.9144   -0.8877   -1.5005 h   0  0  0  0  0  0  0  0  0  0  0  0
   -4.2895    0.2135   -0.0858 h   0  0  0  0  0  0  0  0  0  0  0  0
    4.0255    1.0954   -1.0215 h   0  0  0  0  0  0  0  0  0  0  0  0
    2.9482    0.1125   -2.1185 h   0  0  0  0  0  0  0  0  0  0  0  0
    0.7427   -2.9675    1.1100 h   0  0  0  0  0  0  0  0  0  0  0  0
    1.5787    2.9518    0.4923 h   0  0  0  0  0  0  0  0  0  0  0  0
    1.8085    1.5545    1.5446 h   0  0  0  0  0  0  0  0  0  0  0  0
    3.1985    2.3026    0.7507 h   0  0  0  0  0  0  0  0  0  0  0  0
  1  2  1  0  0  0  0
  2  3  1  0  0  0  0
  3  4  1  0  0  0  0
  4  5  1  0  0  0  0
  1  6  1  0  0  0  0
  5  6  1  0  0  0  0
  1  7  1  0  0  0  0
  5  8  1  0  0  0  0
  7  8  1  0  0  0  0
  6  9  1  0  0  0  0
  1 10  1  0  0  0  0
  8 11  2  0  0  0  0
  2 12  1  0  0  0  0
 12 13  2  0  0  0  0
  2 14  1  0  0  0  0
 10 15  1  0  0  0  0
 12 16  1  0  0  0  0
  3 17  1  0  0  0  0
  3 18  1  0  0  0  0
  4 19  1  0  0  0  0
  4 20  1  0  0  0  0
  5 21  1  0  0  0  0
  6 22  1  0  0  0  0
  7 23  1  0  0  0  0
  7 24  1  0  0  0  0
  9 25  1  0  0  0  0
 10 26  1  0  0  0  0
 10 27  1  0  0  0  0
 11 28  1  0  0  0  0
 11 29  1  0  0  0  0
 13 30  1  0  0  0  0
 13 31  1  0  0  0  0
 15 32  1  0  0  0  0
 16 33  1  0  0  0  0
 16 34  1  0  0  0  0
 16 35  1  0  0  0  0
M  END
