 xtb: 6.7.1 (edcfbbe)
          08092618203D

 35 36  0     0  0            999 V2000
    0.0123   -0.7689   -0.0358 c   0  0  0  0  0  0  0  0  0  0  0  0
    0.5921    0.4621   -0.7883 c   0  0  0  0  0  0  0  0  0  0  0  0
   -0.4197    1.6274   -0.8186 c   0  0  0  0  0  0  0  0  0  0  0  0
   -1.2478    1.7790    0.4544 c   0  0  0  0  0  0  0  0  0  0  0  0
   -1.8236    0.4229    0.8800 c   0  0  0  0  0  0  0  0  0  0  0  0
   -0.6565   -0.4690    1.3200 c   0  0  0  0  0  0  0  0  0  0  0  0
   -1.2377   -1.2319   -0.8145 c   0  0  0  0  0  0  0  0  0  0  0  0
   -2.3488   -0.3481   -0.3042 c   0  0  0  0  0  0  0  0  0  0  0  0
    0.1913    0.0704    2.3058 o   0  0  0  0  0  0  0  0  0  0  0  0
    1.0650   -1.8743    0.1279 c   0  0  0  0  0  0  0  0  0  0  0  0
   -3.5702   -0.2677   -0.8004 c   0  0  0  0  0  0  0  0  0  0  0  0
    1.9896    0.9054   -0.4015 c   0  0  0  0  0  0  0  0  0  0  0  0
    3.0067    0.6420   -1.2138 c   0  0  0  0  0  0  0  0  0  0  0  0
    0.6894    0.1209   -1.8270 h   0  0  0  0  0  0  0  0  0  0  0  0
    1.5940   -2.3538   -1.0870 o   0  0  0  0  0  0  0  0  0  0  0  0
    2.2097    1.7061    0.8423 c   0  0  0  0  0  0  0  0  0  0  0  0
    0.1127    2.5567   -1.0299 h   0  0  0  0  0  0  0  0  0  0  0  0
   -1.1104    1.4568   -1.6470 h   0  0  0  0  0  0  0  0  0  0  0  0
   -0.6336    2.1633    1.2700 h   0  0  0  0  0  0  0  0  0  0  0  0
   -2.0580    2.4871    0.2708 h   0  0  0  0  0  0  0  0  0  0  0  0
   -2.5748    0.5581    1.6624 h   0  0  0  0  0  0  0  0  0  0  0  0
   -1.0576   -1.4256    1.6973 h   0  0  0  0  0  0  0  0  0  0  0  0
   -1.1131   -1.1635   -1.8942 h   0  0  0  0  0  0  0  0  0  0  0  0
   -1.4553   -2.2772   -0.5802 h   0  0  0  0  0  0  0  0  0  0  0  0
   -0.3409    0.2492    3.0912 h   0  0  0  0  0  0  0  0  0  0  0  0
    0.6054   -2.7439    0.6068 h   0  0  0  0  0  0  0  0  0  0  0  0
    1.8666   -1.5061    0.7807 h   0  0  0  0  0  0  0  0  0  0  0  0
   -3.8719   -0.8454   -1.6580 h   0  0  0  0  0  0  0  0  0  0  0  0
   -4.3160    0.3796   -0.3708 h   0  0  0  0  0  0  0  0  0  0  0  0
    4.0110    0.9579   -0.9836 h   0  0  0  0  0  0  0  0  0  0  0  0
    2.8912    0.1232   -2.1531 h   0  0  0  0  0  0  0  0  0  0  0  0
    2.1413   -1.6522   -1.4644 h   0  0  0  0  0  0  0  0  0  0  0  0
    1.6801    2.6553    0.7772 h   0  0  0  0  0  0  0  0  0  0  0  0
    1.8363    1.1720    1.7099 h   0  0  0  0  0  0  0  0  0  0  0  0
    3.2685    1.9128    0.9784 h   0  0  0  0  0  0  0  0  0  0  0  0
  1  2  1  0  0  0  0
  2  3  1  0  0  0  0
  3  4  1  0  0  0  0
  4  5  1  0  0  0  0
  1  6  1  0  0  0  0
  5  6  1  0  0  0  0
  1  7  1  0  0  0  0
  5  8  1  0  0  0  0
  7  8  1  0  0  0  0
  6  9  1  0  0  0  0
  1 10  1  0  0  0  0
  8 11  2  0  0  0  0
  2 12  1  0  0  0  0
 12 13  2  0  0  0  0
  2 14  1  0  0  0  0
 10 15  1  0  0  0  0
 12 16  1  0  0  0  0
  3 17  1  0  0  0  0
  3 18  1  0  0  0  0
  4 19  1  0  0  0  0
  4 20  1  0  0  0  0
  5 21  1  0  0  0  0
  6 22  1  0  0  0  0
  7 23  1  0  0  0  0
  7 24  1  0  0  0  0
  9 25  1  0  0  0  0
 10 26  1  0  0  0  0
 10 27  1  0  0  0  0
 11 28  1  0  0  0  0
 11 29  1  0  0  0  0
 13 30  1  0  0  0  0
 13 31  1  0  0  0  0
 15 32  1  0  0  0  0
 16 33  1  0  0  0  0
 16 34  1  0  0  0  0
 16 35  1  0  0  0  0
M  END
