 xtb: 6.7.1 (edcfbbe)
          08092617053D

 35 36  0     0  0            999 V2000
   -0.0407   -0.5554    0.2925 c   0  0  0  0  0  0  0  0  0  0  0  0
   -1.0272    0.5725    0.6971 c   0  0  0  0  0  0  0  0  0  0  0  0
   -0.3396    1.9532    0.6324 c   0  0  0  0  0  0  0  0  0  0  0  0
    0.5904    2.1642   -0.5629 c   0  0  0  0  0  0  0  0  0  0  0  0
    1.4523    0.9215   -0.8037 c   0  0  0  0  0  0  0  0  0  0  0  0
    0.5260   -0.2587   -1.1073 c   0  0  0  0  0  0  0  0  0  0  0  0
    1.2194   -0.4811    1.1750 c   0  0  0  0  0  0  0  0  0  0  0  0
    2.1218    0.5009    0.4808 c   0  0  0  0  0  0  0  0  0  0  0  0
    1.2362   -1.3849   -1.6102 o   0  0  0  0  0  0  0  0  0  0  0  0
   -0.7280   -1.9265    0.3920 c   0  0  0  0  0  0  0  0  0  0  0  0
    3.2978    0.9226    0.9086 c   0  0  0  0  0  0  0  0  0  0  0  0
   -2.3587    0.5350   -0.0288 c   0  0  0  0  0  0  0  0  0  0  0  0
   -2.5843    1.0246   -1.2391 c   0  0  0  0  0  0  0  0  0  0  0  0
   -1.2610    0.3922    1.7526 h   0  0  0  0  0  0  0  0  0  0  0  0
    0.1538   -3.0195    0.2776 o   0  0  0  0  0  0  0  0  0  0  0  0
   -3.4956   -0.0309    0.7749 c   0  0  0  0  0  0  0  0  0  0  0  0
   -1.1080    2.7284    0.6367 h   0  0  0  0  0  0  0  0  0  0  0  0
    0.2543    2.0762    1.5398 h   0  0  0  0  0  0  0  0  0  0  0  0
    0.0245    2.3867   -1.4683 h   0  0  0  0  0  0  0  0  0  0  0  0
    1.2368    3.0206   -0.3604 h   0  0  0  0  0  0  0  0  0  0  0  0
    2.1696    1.1093   -1.6079 h   0  0  0  0  0  0  0  0  0  0  0  0
   -0.2672   -0.0037   -1.8191 h   0  0  0  0  0  0  0  0  0  0  0  0
    1.6930   -1.4656    1.2095 h   0  0  0  0  0  0  0  0  0  0  0  0
    0.9928   -0.1885    2.2000 h   0  0  0  0  0  0  0  0  0  0  0  0
    1.7622   -1.0993   -2.3669 h   0  0  0  0  0  0  0  0  0  0  0  0
   -1.5085   -1.9930   -0.3799 h   0  0  0  0  0  0  0  0  0  0  0  0
   -1.1906   -2.0351    1.3768 h   0  0  0  0  0  0  0  0  0  0  0  0
    3.7130    0.5884    1.8445 h   0  0  0  0  0  0  0  0  0  0  0  0
    3.8924    1.6193    0.3416 h   0  0  0  0  0  0  0  0  0  0  0  0
   -3.5678    0.9838   -1.6787 h   0  0  0  0  0  0  0  0  0  0  0  0
   -1.8306    1.4924   -1.8450 h   0  0  0  0  0  0  0  0  0  0  0  0
    0.6891   -2.8622   -0.5155 h   0  0  0  0  0  0  0  0  0  0  0  0
   -3.2642   -1.0302    1.1356 h   0  0  0  0  0  0  0  0  0  0  0  0
   -3.6780    0.6018    1.6441 h   0  0  0  0  0  0  0  0  0  0  0  0
   -4.4071   -0.0746    0.1843 h   0  0  0  0  0  0  0  0  0  0  0  0
  1  2  1  0  0  0  0
  2  3  1  0  0  0  0
  3  4  1  0  0  0  0
  4  5  1  0  0  0  0
  1  6  1  0  0  0  0
  5  6  1  0  0  0  0
  1  7  1  0  0  0  0
  5  8  1  0  0  0  0
  7  8  1  0  0  0  0
  6  9  1  0  0  0  0
  1 10  1  0  0  0  0
  8 11  2  0  0  0  0
  2 12  1  0  0  0  0
 12 13  2  0  0  0  0
  2 14  1  0  0  0  0
 10 15  1  0  0  0  0
 12 16  1  0  0  0  0
  3 17  1  0  0  0  0
  3 18  1  0  0  0  0
  4 19  1  0  0  0  0
  4 20  1  0  0  0  0
  5 21  1  0  0  0  0
  6 22  1  0  0  0  0
  7 23  1  0  0  0  0
  7 24  1  0  0  0  0
  9 25  1  0  0  0  0
 10 26  1  0  0  0  0
 10 27  1  0  0  0  0
 11 28  1  0  0  0  0
 11 29  1  0  0  0  0
 13 30  1  0  0  0  0
 13 31  1  0  0  0  0
 15 32  1  0  0  0  0
 16 33  1  0  0  0  0
 16 34  1  0  0  0  0
 16 35  1  0  0  0  0
M  END
