 xtb: 6.7.1 (edcfbbe)
          08092615283D

 35 36  0     0  0            999 V2000
    0.0851   -0.6486    0.0846 c   0  0  0  0  0  0  0  0  0  0  0  0
   -0.9521    0.3234    0.7088 c   0  0  0  0  0  0  0  0  0  0  0  0
   -0.3472    1.7295    0.8706 c   0  0  0  0  0  0  0  0  0  0  0  0
    0.4954    2.2007   -0.3151 c   0  0  0  0  0  0  0  0  0  0  0  0
    1.4450    1.0893   -0.7725 c   0  0  0  0  0  0  0  0  0  0  0  0
    0.6108   -0.1010   -1.2579 c   0  0  0  0  0  0  0  0  0  0  0  0
    1.3622   -0.6375    0.9488 c   0  0  0  0  0  0  0  0  0  0  0  0
    2.1754    0.5128    0.4145 c   0  0  0  0  0  0  0  0  0  0  0  0
    1.3725   -1.0329   -1.9891 o   0  0  0  0  0  0  0  0  0  0  0  0
   -0.4894   -2.0580   -0.0530 c   0  0  0  0  0  0  0  0  0  0  0  0
    3.3307    0.9387    0.8914 c   0  0  0  0  0  0  0  0  0  0  0  0
   -2.3124    0.3128    0.0391 c   0  0  0  0  0  0  0  0  0  0  0  0
   -3.2566   -0.4930    0.5063 c   0  0  0  0  0  0  0  0  0  0  0  0
   -1.1274   -0.0712    1.7161 h   0  0  0  0  0  0  0  0  0  0  0  0
   -0.7679   -2.5761    1.2315 o   0  0  0  0  0  0  0  0  0  0  0  0
   -2.6163    1.2368   -1.1030 c   0  0  0  0  0  0  0  0  0  0  0  0
   -1.1475    2.4452    1.0678 h   0  0  0  0  0  0  0  0  0  0  0  0
    0.2955    1.7237    1.7530 h   0  0  0  0  0  0  0  0  0  0  0  0
   -0.1333    2.4938   -1.1564 h   0  0  0  0  0  0  0  0  0  0  0  0
    1.0760    3.0749   -0.0118 h   0  0  0  0  0  0  0  0  0  0  0  0
    2.1213    1.4604   -1.5463 h   0  0  0  0  0  0  0  0  0  0  0  0
   -0.1884    0.1858   -1.9401 h   0  0  0  0  0  0  0  0  0  0  0  0
    1.9045   -1.5801    0.8347 h   0  0  0  0  0  0  0  0  0  0  0  0
    1.1373   -0.5336    2.0094 h   0  0  0  0  0  0  0  0  0  0  0  0
    2.1641   -1.2396   -1.4785 h   0  0  0  0  0  0  0  0  0  0  0  0
    0.2427   -2.6932   -0.5718 h   0  0  0  0  0  0  0  0  0  0  0  0
   -1.4007   -2.0210   -0.6645 h   0  0  0  0  0  0  0  0  0  0  0  0
    3.7914    0.4843    1.7525 h   0  0  0  0  0  0  0  0  0  0  0  0
    3.8596    1.7630    0.4435 h   0  0  0  0  0  0  0  0  0  0  0  0
   -4.2406   -0.5334    0.0687 h   0  0  0  0  0  0  0  0  0  0  0  0
   -3.0792   -1.1540    1.3375 h   0  0  0  0  0  0  0  0  0  0  0  0
   -1.1743   -3.4420    1.1303 h   0  0  0  0  0  0  0  0  0  0  0  0
   -2.4202    2.2716   -0.8304 h   0  0  0  0  0  0  0  0  0  0  0  0
   -2.0193    1.0006   -1.9816 h   0  0  0  0  0  0  0  0  0  0  0  0
   -3.6653    1.1511   -1.3779 h   0  0  0  0  0  0  0  0  0  0  0  0
  1  2  1  0  0  0  0
  2  3  1  0  0  0  0
  3  4  1  0  0  0  0
  4  5  1  0  0  0  0
  1  6  1  0  0  0  0
  5  6  1  0  0  0  0
  1  7  1  0  0  0  0
  5  8  1  0  0  0  0
  7  8  1  0  0  0  0
  6  9  1  0  0  0  0
  1 10  1  0  0  0  0
  8 11  2  0  0  0  0
  2 12  1  0  0  0  0
 12 13  2  0  0  0  0
  2 14  1  0  0  0  0
 10 15  1  0  0  0  0
 12 16  1  0  0  0  0
  3 17  1  0  0  0  0
  3 18  1  0  0  0  0
  4 19  1  0  0  0  0
  4 20  1  0  0  0  0
  5 21  1  0  0  0  0
  6 22  1  0  0  0  0
  7 23  1  0  0  0  0
  7 24  1  0  0  0  0
  9 25  1  0  0  0  0
 10 26  1  0  0  0  0
 10 27  1  0  0  0  0
 11 28  1  0  0  0  0
 11 29  1  0  0  0  0
 13 30  1  0  0  0  0
 13 31  1  0  0  0  0
 15 32  1  0  0  0  0
 16 33  1  0  0  0  0
 16 34  1  0  0  0  0
 16 35  1  0  0  0  0
M  END
