 xtb: 6.7.1 (edcfbbe)
          08092617483D

 35 36  0     0  0            999 V2000
    0.0129   -0.7554   -0.0429 c   0  0  0  0  0  0  0  0  0  0  0  0
    0.6229    0.4776   -0.7708 c   0  0  0  0  0  0  0  0  0  0  0  0
   -0.4299    1.5975   -0.9032 c   0  0  0  0  0  0  0  0  0  0  0  0
   -1.3089    1.8110    0.3304 c   0  0  0  0  0  0  0  0  0  0  0  0
   -1.8074    0.4695    0.8749 c   0  0  0  0  0  0  0  0  0  0  0  0
   -0.6053   -0.3816    1.3204 c   0  0  0  0  0  0  0  0  0  0  0  0
   -1.2472   -1.2084   -0.8052 c   0  0  0  0  0  0  0  0  0  0  0  0
   -2.3645   -0.3626   -0.2496 c   0  0  0  0  0  0  0  0  0  0  0  0
    0.2554    0.1803    2.2729 o   0  0  0  0  0  0  0  0  0  0  0  0
    1.0109   -1.9017    0.1273 c   0  0  0  0  0  0  0  0  0  0  0  0
   -3.6146   -0.3519   -0.6752 c   0  0  0  0  0  0  0  0  0  0  0  0
    1.9534    0.9706   -0.2340 c   0  0  0  0  0  0  0  0  0  0  0  0
    2.1091    1.9995    0.5912 c   0  0  0  0  0  0  0  0  0  0  0  0
    0.8429    0.1230   -1.7854 h   0  0  0  0  0  0  0  0  0  0  0  0
    1.4504   -2.3643   -1.1393 o   0  0  0  0  0  0  0  0  0  0  0  0
    3.1723    0.3072   -0.8164 c   0  0  0  0  0  0  0  0  0  0  0  0
    0.0772    2.5290   -1.1617 h   0  0  0  0  0  0  0  0  0  0  0  0
   -1.0888    1.3469   -1.7366 h   0  0  0  0  0  0  0  0  0  0  0  0
   -0.7777    2.3358    1.1259 h   0  0  0  0  0  0  0  0  0  0  0  0
   -2.1657    2.4274    0.0496 h   0  0  0  0  0  0  0  0  0  0  0  0
   -2.5234    0.6324    1.6828 h   0  0  0  0  0  0  0  0  0  0  0  0
   -0.9828   -1.2945    1.8006 h   0  0  0  0  0  0  0  0  0  0  0  0
   -1.1392   -1.1054   -1.8843 h   0  0  0  0  0  0  0  0  0  0  0  0
   -1.4463   -2.2629   -0.5997 h   0  0  0  0  0  0  0  0  0  0  0  0
    0.7801    0.8686    1.8351 h   0  0  0  0  0  0  0  0  0  0  0  0
    0.5102   -2.7158    0.6688 h   0  0  0  0  0  0  0  0  0  0  0  0
    1.8606   -1.5645    0.7352 h   0  0  0  0  0  0  0  0  0  0  0  0
   -3.9382   -0.9660   -1.4990 h   0  0  0  0  0  0  0  0  0  0  0  0
   -4.3640    0.2712   -0.2172 h   0  0  0  0  0  0  0  0  0  0  0  0
    3.0948    2.3166    0.8914 h   0  0  0  0  0  0  0  0  0  0  0  0
    1.3021    2.5984    0.9752 h   0  0  0  0  0  0  0  0  0  0  0  0
    1.9765   -3.1616   -1.0079 h   0  0  0  0  0  0  0  0  0  0  0  0
    2.9507   -0.6884   -1.1854 h   0  0  0  0  0  0  0  0  0  0  0  0
    3.5230    0.8984   -1.6639 h   0  0  0  0  0  0  0  0  0  0  0  0
    3.9794    0.2570   -0.0887 h   0  0  0  0  0  0  0  0  0  0  0  0
  1  2  1  0  0  0  0
  2  3  1  0  0  0  0
  3  4  1  0  0  0  0
  4  5  1  0  0  0  0
  1  6  1  0  0  0  0
  5  6  1  0  0  0  0
  1  7  1  0  0  0  0
  5  8  1  0  0  0  0
  7  8  1  0  0  0  0
  6  9  1  0  0  0  0
  1 10  1  0  0  0  0
  8 11  2  0  0  0  0
  2 12  1  0  0  0  0
 12 13  2  0  0  0  0
  2 14  1  0  0  0  0
 10 15  1  0  0  0  0
 12 16  1  0  0  0  0
  3 17  1  0  0  0  0
  3 18  1  0  0  0  0
  4 19  1  0  0  0  0
  4 20  1  0  0  0  0
  5 21  1  0  0  0  0
  6 22  1  0  0  0  0
  7 23  1  0  0  0  0
  7 24  1  0  0  0  0
  9 25  1  0  0  0  0
 10 26  1  0  0  0  0
 10 27  1  0  0  0  0
 11 28  1  0  0  0  0
 11 29  1  0  0  0  0
 13 30  1  0  0  0  0
 13 31  1  0  0  0  0
 15 32  1  0  0  0  0
 16 33  1  0  0  0  0
 16 34  1  0  0  0  0
 16 35  1  0  0  0  0
M  END
