 xtb: 6.7.1 (edcfbbe)
          08092600333D

 42 44  0     0  0            999 V2000
    0.9668    1.4243    0.0607 c   0  0  0  0  0  0  0  0  0  0  0  0
    2.1153    0.7759    0.8503 c   0  0  0  0  0  0  0  0  0  0  0  0
    3.0226   -0.2062    0.0972 c   0  0  0  0  0  0  0  0  0  0  0  0
    2.3581   -1.2383   -0.8247 c   0  0  0  0  0  0  0  0  0  0  0  0
    1.0921   -1.9399   -0.3097 c   0  0  0  0  0  0  0  0  0  0  0  0
   -0.0021   -0.9483    0.0975 c   0  0  0  0  0  0  0  0  0  0  0  0
    0.0644    0.3957   -0.6334 c   0  0  0  0  0  0  0  0  0  0  0  0
   -0.0078    2.1412    1.0163 c   0  0  0  0  0  0  0  0  0  0  0  0
   -1.3590    2.1588    0.2982 c   0  0  0  0  0  0  0  0  0  0  0  0
   -1.3902    0.8974   -0.5777 c   0  0  0  0  0  0  0  0  0  0  0  0
   -1.2914   -1.4471   -0.2028 o   0  0  0  0  0  0  0  0  0  0  0  0
   -2.2034   -0.3494   -0.1083 c   0  0  0  0  0  0  0  0  0  0  0  0
    0.3593    0.2274   -1.6686 h   0  0  0  0  0  0  0  0  0  0  0  0
   -1.7452    1.1617   -1.5759 h   0  0  0  0  0  0  0  0  0  0  0  0
    0.0484   -0.7779    1.1818 h   0  0  0  0  0  0  0  0  0  0  0  0
    1.4024   -2.8974    0.8381 c   0  0  0  0  0  0  0  0  0  0  0  0
   -3.3632   -0.6452   -1.0597 c   0  0  0  0  0  0  0  0  0  0  0  0
   -2.7412   -0.2533    1.3246 c   0  0  0  0  0  0  0  0  0  0  0  0
    1.5249    2.4104   -0.9662 c   0  0  0  0  0  0  0  0  0  0  0  0
    2.7485    1.5778    1.2410 h   0  0  0  0  0  0  0  0  0  0  0  0
    1.7008    0.2623    1.7186 h   0  0  0  0  0  0  0  0  0  0  0  0
    3.7311    0.3586   -0.5139 h   0  0  0  0  0  0  0  0  0  0  0  0
    3.6116   -0.7331    0.8518 h   0  0  0  0  0  0  0  0  0  0  0  0
    3.1007   -2.0122   -1.0373 h   0  0  0  0  0  0  0  0  0  0  0  0
    2.1305   -0.7623   -1.7790 h   0  0  0  0  0  0  0  0  0  0  0  0
    0.6845   -2.5268   -1.1407 h   0  0  0  0  0  0  0  0  0  0  0  0
    0.3331    3.1453    1.2669 h   0  0  0  0  0  0  0  0  0  0  0  0
   -0.0898    1.5773    1.9471 h   0  0  0  0  0  0  0  0  0  0  0  0
   -2.1886    2.2134    0.9986 h   0  0  0  0  0  0  0  0  0  0  0  0
   -1.4195    3.0371   -0.3463 h   0  0  0  0  0  0  0  0  0  0  0  0
    1.8331   -2.3625    1.6816 h   0  0  0  0  0  0  0  0  0  0  0  0
    0.4886   -3.3858    1.1671 h   0  0  0  0  0  0  0  0  0  0  0  0
    2.1079   -3.6612    0.5183 h   0  0  0  0  0  0  0  0  0  0  0  0
   -4.0636    0.1859   -1.0696 h   0  0  0  0  0  0  0  0  0  0  0  0
   -3.8804   -1.5454   -0.7389 h   0  0  0  0  0  0  0  0  0  0  0  0
   -2.9845   -0.8094   -2.0652 h   0  0  0  0  0  0  0  0  0  0  0  0
   -1.9623    0.0346    2.0246 h   0  0  0  0  0  0  0  0  0  0  0  0
   -3.5568    0.4621    1.3826 h   0  0  0  0  0  0  0  0  0  0  0  0
   -3.1166   -1.2318    1.6155 h   0  0  0  0  0  0  0  0  0  0  0  0
    2.1786    1.9005   -1.6696 h   0  0  0  0  0  0  0  0  0  0  0  0
    0.7183    2.8761   -1.5267 h   0  0  0  0  0  0  0  0  0  0  0  0
    2.0983    3.1926   -0.4724 h   0  0  0  0  0  0  0  0  0  0  0  0
  1  2  1  0  0  0  0
  2  3  1  0  0  0  0
  3  4  1  0  0  0  0
  4  5  1  0  0  0  0
  5  6  1  0  0  0  0
  1  7  1  0  0  0  0
  6  7  1  0  0  0  0
  1  8  1  0  0  0  0
  8  9  1  0  0  0  0
  7 10  1  0  0  0  0
  9 10  1  0  0  0  0
  6 11  1  0  0  0  0
 10 12  1  0  0  0  0
 11 12  1  0  0  0  0
  7 13  1  0  0  0  0
 10 14  1  0  0  0  0
  6 15  1  0  0  0  0
  5 16  1  0  0  0  0
 12 17  1  0  0  0  0
 12 18  1  0  0  0  0
  1 19  1  0  0  0  0
  2 20  1  0  0  0  0
  2 21  1  0  0  0  0
  3 22  1  0  0  0  0
  3 23  1  0  0  0  0
  4 24  1  0  0  0  0
  4 25  1  0  0  0  0
  5 26  1  0  0  0  0
  8 27  1  0  0  0  0
  8 28  1  0  0  0  0
  9 29  1  0  0  0  0
  9 30  1  0  0  0  0
 16 31  1  0  0  0  0
 16 32  1  0  0  0  0
 16 33  1  0  0  0  0
 17 34  1  0  0  0  0
 17 35  1  0  0  0  0
 17 36  1  0  0  0  0
 18 37  1  0  0  0  0
 18 38  1  0  0  0  0
 18 39  1  0  0  0  0
 19 40  1  0  0  0  0
 19 41  1  0  0  0  0
 19 42  1  0  0  0  0
M  END
