 xtb: 6.7.1 (edcfbbe)
          08092615283D

 35 36  0     0  0            999 V2000
    0.0936   -0.6587    0.0925 c   0  0  0  0  0  0  0  0  0  0  0  0
   -0.9525    0.3052    0.7207 c   0  0  0  0  0  0  0  0  0  0  0  0
   -0.3448    1.7066    0.9091 c   0  0  0  0  0  0  0  0  0  0  0  0
    0.4815    2.2038   -0.2783 c   0  0  0  0  0  0  0  0  0  0  0  0
    1.4265    1.1015   -0.7673 c   0  0  0  0  0  0  0  0  0  0  0  0
    0.5898   -0.0851   -1.2503 c   0  0  0  0  0  0  0  0  0  0  0  0
    1.3872   -0.6420    0.9344 c   0  0  0  0  0  0  0  0  0  0  0  0
    2.1813    0.5210    0.3991 c   0  0  0  0  0  0  0  0  0  0  0  0
    1.4368   -0.9675   -1.9697 o   0  0  0  0  0  0  0  0  0  0  0  0
   -0.4600   -2.0837   -0.0372 c   0  0  0  0  0  0  0  0  0  0  0  0
    3.3356    0.9559    0.8694 c   0  0  0  0  0  0  0  0  0  0  0  0
   -2.3044    0.3034    0.0264 c   0  0  0  0  0  0  0  0  0  0  0  0
   -3.2255   -0.5750    0.4011 c   0  0  0  0  0  0  0  0  0  0  0  0
   -1.1493   -0.0975    1.7219 h   0  0  0  0  0  0  0  0  0  0  0  0
   -0.8561   -2.6427    1.1980 o   0  0  0  0  0  0  0  0  0  0  0  0
   -2.6323    1.3229   -1.0258 c   0  0  0  0  0  0  0  0  0  0  0  0
   -1.1412    2.4172    1.1355 h   0  0  0  0  0  0  0  0  0  0  0  0
    0.3101    1.6785    1.7819 h   0  0  0  0  0  0  0  0  0  0  0  0
   -0.1574    2.5166   -1.1035 h   0  0  0  0  0  0  0  0  0  0  0  0
    1.0690    3.0686    0.0363 h   0  0  0  0  0  0  0  0  0  0  0  0
    2.0885    1.4711   -1.5521 h   0  0  0  0  0  0  0  0  0  0  0  0
   -0.2349    0.2239   -1.8986 h   0  0  0  0  0  0  0  0  0  0  0  0
    1.9520   -1.5633    0.7656 h   0  0  0  0  0  0  0  0  0  0  0  0
    1.1968   -0.5484    2.0041 h   0  0  0  0  0  0  0  0  0  0  0  0
    0.8992   -1.6613   -2.3682 h   0  0  0  0  0  0  0  0  0  0  0  0
    0.3016   -2.7270   -0.5008 h   0  0  0  0  0  0  0  0  0  0  0  0
   -1.3573   -2.0912   -0.6609 h   0  0  0  0  0  0  0  0  0  0  0  0
    3.8125    0.4974    1.7198 h   0  0  0  0  0  0  0  0  0  0  0  0
    3.8526    1.7867    0.4201 h   0  0  0  0  0  0  0  0  0  0  0  0
   -4.2002   -0.6076   -0.0583 h   0  0  0  0  0  0  0  0  0  0  0  0
   -3.0394   -1.3107    1.1652 h   0  0  0  0  0  0  0  0  0  0  0  0
   -0.0906   -2.6370    1.7873 h   0  0  0  0  0  0  0  0  0  0  0  0
   -1.9961    1.2216   -1.9024 h   0  0  0  0  0  0  0  0  0  0  0  0
   -3.6653    1.2025   -1.3445 h   0  0  0  0  0  0  0  0  0  0  0  0
   -2.5120    2.3327   -0.6391 h   0  0  0  0  0  0  0  0  0  0  0  0
  1  2  1  0  0  0  0
  2  3  1  0  0  0  0
  3  4  1  0  0  0  0
  4  5  1  0  0  0  0
  1  6  1  0  0  0  0
  5  6  1  0  0  0  0
  1  7  1  0  0  0  0
  5  8  1  0  0  0  0
  7  8  1  0  0  0  0
  6  9  1  0  0  0  0
  1 10  1  0  0  0  0
  8 11  2  0  0  0  0
  2 12  1  0  0  0  0
 12 13  2  0  0  0  0
  2 14  1  0  0  0  0
 10 15  1  0  0  0  0
 12 16  1  0  0  0  0
  3 17  1  0  0  0  0
  3 18  1  0  0  0  0
  4 19  1  0  0  0  0
  4 20  1  0  0  0  0
  5 21  1  0  0  0  0
  6 22  1  0  0  0  0
  7 23  1  0  0  0  0
  7 24  1  0  0  0  0
  9 25  1  0  0  0  0
 10 26  1  0  0  0  0
 10 27  1  0  0  0  0
 11 28  1  0  0  0  0
 11 29  1  0  0  0  0
 13 30  1  0  0  0  0
 13 31  1  0  0  0  0
 15 32  1  0  0  0  0
 16 33  1  0  0  0  0
 16 34  1  0  0  0  0
 16 35  1  0  0  0  0
M  END
