 xtb: 6.7.1 (edcfbbe)
          08092618203D

 35 36  0     0  0            999 V2000
    0.1073   -0.6847   -0.2393 c   0  0  0  0  0  0  0  0  0  0  0  0
    0.6181    0.6306   -0.8957 c   0  0  0  0  0  0  0  0  0  0  0  0
   -0.4858    1.7104   -0.8598 c   0  0  0  0  0  0  0  0  0  0  0  0
   -1.2882    1.7772    0.4406 c   0  0  0  0  0  0  0  0  0  0  0  0
   -1.6966    0.3735    0.8948 c   0  0  0  0  0  0  0  0  0  0  0  0
   -0.4375   -0.4610    1.1870 c   0  0  0  0  0  0  0  0  0  0  0  0
   -1.1814   -1.1305   -0.9562 c   0  0  0  0  0  0  0  0  0  0  0  0
   -2.2932   -0.3878   -0.2606 c   0  0  0  0  0  0  0  0  0  0  0  0
    0.4619    0.0390    2.1396 o   0  0  0  0  0  0  0  0  0  0  0  0
    1.1813   -1.7849   -0.2746 c   0  0  0  0  0  0  0  0  0  0  0  0
   -3.5682   -0.3963   -0.6046 c   0  0  0  0  0  0  0  0  0  0  0  0
    1.9640    1.1534   -0.4225 c   0  0  0  0  0  0  0  0  0  0  0  0
    2.1323    2.0853    0.5081 c   0  0  0  0  0  0  0  0  0  0  0  0
    0.7727    0.3773   -1.9523 h   0  0  0  0  0  0  0  0  0  0  0  0
    0.7165   -3.0425    0.1705 o   0  0  0  0  0  0  0  0  0  0  0  0
    3.1536    0.6758   -1.2080 c   0  0  0  0  0  0  0  0  0  0  0  0
   -0.0353    2.6832   -1.0660 h   0  0  0  0  0  0  0  0  0  0  0  0
   -1.1895    1.5023   -1.6677 h   0  0  0  0  0  0  0  0  0  0  0  0
   -0.7271    2.2567    1.2441 h   0  0  0  0  0  0  0  0  0  0  0  0
   -2.1851    2.3761    0.2691 h   0  0  0  0  0  0  0  0  0  0  0  0
   -2.3640    0.4355    1.7569 h   0  0  0  0  0  0  0  0  0  0  0  0
   -0.7663   -1.4238    1.6018 h   0  0  0  0  0  0  0  0  0  0  0  0
   -1.1571   -0.9333   -2.0278 h   0  0  0  0  0  0  0  0  0  0  0  0
   -1.3102   -2.2083   -0.8235 h   0  0  0  0  0  0  0  0  0  0  0  0
    0.9319    0.7898    1.7472 h   0  0  0  0  0  0  0  0  0  0  0  0
    2.0418   -1.4736    0.3302 h   0  0  0  0  0  0  0  0  0  0  0  0
    1.5002   -1.9564   -1.3058 h   0  0  0  0  0  0  0  0  0  0  0  0
   -3.9221   -0.9544   -1.4554 h   0  0  0  0  0  0  0  0  0  0  0  0
   -4.3089    0.1531   -0.0486 h   0  0  0  0  0  0  0  0  0  0  0  0
    3.1174    2.4443    0.7574 h   0  0  0  0  0  0  0  0  0  0  0  0
    1.3287    2.5662    1.0380 h   0  0  0  0  0  0  0  0  0  0  0  0
    0.5368   -2.9836    1.1171 h   0  0  0  0  0  0  0  0  0  0  0  0
    4.0808    0.9833   -0.7310 h   0  0  0  0  0  0  0  0  0  0  0  0
    3.1624   -0.4026   -1.3309 h   0  0  0  0  0  0  0  0  0  0  0  0
    3.1196    1.1199   -2.2041 h   0  0  0  0  0  0  0  0  0  0  0  0
  1  2  1  0  0  0  0
  2  3  1  0  0  0  0
  3  4  1  0  0  0  0
  4  5  1  0  0  0  0
  1  6  1  0  0  0  0
  5  6  1  0  0  0  0
  1  7  1  0  0  0  0
  5  8  1  0  0  0  0
  7  8  1  0  0  0  0
  6  9  1  0  0  0  0
  1 10  1  0  0  0  0
  8 11  2  0  0  0  0
  2 12  1  0  0  0  0
 12 13  2  0  0  0  0
  2 14  1  0  0  0  0
 10 15  1  0  0  0  0
 12 16  1  0  0  0  0
  3 17  1  0  0  0  0
  3 18  1  0  0  0  0
  4 19  1  0  0  0  0
  4 20  1  0  0  0  0
  5 21  1  0  0  0  0
  6 22  1  0  0  0  0
  7 23  1  0  0  0  0
  7 24  1  0  0  0  0
  9 25  1  0  0  0  0
 10 26  1  0  0  0  0
 10 27  1  0  0  0  0
 11 28  1  0  0  0  0
 11 29  1  0  0  0  0
 13 30  1  0  0  0  0
 13 31  1  0  0  0  0
 15 32  1  0  0  0  0
 16 33  1  0  0  0  0
 16 34  1  0  0  0  0
 16 35  1  0  0  0  0
M  END
