 xtb: 6.7.1 (edcfbbe)
          08092617483D

 35 36  0     0  0            999 V2000
    0.0341   -0.7753   -0.0272 c   0  0  0  0  0  0  0  0  0  0  0  0
    0.6506    0.4175   -0.8130 c   0  0  0  0  0  0  0  0  0  0  0  0
   -0.3996    1.5272   -0.9970 c   0  0  0  0  0  0  0  0  0  0  0  0
   -1.2455    1.8045    0.2451 c   0  0  0  0  0  0  0  0  0  0  0  0
   -1.7748    0.4935    0.8378 c   0  0  0  0  0  0  0  0  0  0  0  0
   -0.5919   -0.3529    1.3183 c   0  0  0  0  0  0  0  0  0  0  0  0
   -1.2312   -1.2560   -0.7671 c   0  0  0  0  0  0  0  0  0  0  0  0
   -2.3413   -0.3757   -0.2534 c   0  0  0  0  0  0  0  0  0  0  0  0
    0.2262    0.3330    2.2350 o   0  0  0  0  0  0  0  0  0  0  0  0
    1.0359   -1.9189    0.1478 c   0  0  0  0  0  0  0  0  0  0  0  0
   -3.5895   -0.3658   -0.6843 c   0  0  0  0  0  0  0  0  0  0  0  0
    1.9919    0.9133   -0.3004 c   0  0  0  0  0  0  0  0  0  0  0  0
    3.1038    0.3157   -0.7104 c   0  0  0  0  0  0  0  0  0  0  0  0
    0.8629    0.0030   -1.8061 h   0  0  0  0  0  0  0  0  0  0  0  0
    1.3820   -2.4433   -1.1211 o   0  0  0  0  0  0  0  0  0  0  0  0
    2.0708    2.1091    0.6004 c   0  0  0  0  0  0  0  0  0  0  0  0
    0.0945    2.4430   -1.3234 h   0  0  0  0  0  0  0  0  0  0  0  0
   -1.0745    1.2271   -1.8012 h   0  0  0  0  0  0  0  0  0  0  0  0
   -0.6686    2.3188    1.0118 h   0  0  0  0  0  0  0  0  0  0  0  0
   -2.0879    2.4408   -0.0330 h   0  0  0  0  0  0  0  0  0  0  0  0
   -2.4868    0.7023    1.6380 h   0  0  0  0  0  0  0  0  0  0  0  0
   -0.9844   -1.2608    1.8094 h   0  0  0  0  0  0  0  0  0  0  0  0
   -1.1196   -1.2077   -1.8493 h   0  0  0  0  0  0  0  0  0  0  0  0
   -1.4362   -2.2986   -0.5111 h   0  0  0  0  0  0  0  0  0  0  0  0
    0.9812   -0.2267    2.4505 h   0  0  0  0  0  0  0  0  0  0  0  0
    0.5744   -2.7064    0.7629 h   0  0  0  0  0  0  0  0  0  0  0  0
    1.9360   -1.5543    0.6616 h   0  0  0  0  0  0  0  0  0  0  0  0
   -3.9176   -1.0074   -1.4850 h   0  0  0  0  0  0  0  0  0  0  0  0
   -4.3316    0.2858   -0.2552 h   0  0  0  0  0  0  0  0  0  0  0  0
    4.0786    0.6376   -0.3807 h   0  0  0  0  0  0  0  0  0  0  0  0
    3.0860   -0.5185   -1.3922 h   0  0  0  0  0  0  0  0  0  0  0  0
    2.0126   -3.1621   -0.9957 h   0  0  0  0  0  0  0  0  0  0  0  0
    1.4593    1.9728    1.4873 h   0  0  0  0  0  0  0  0  0  0  0  0
    3.1010    2.2794    0.9053 h   0  0  0  0  0  0  0  0  0  0  0  0
    1.7202    3.0001    0.0818 h   0  0  0  0  0  0  0  0  0  0  0  0
  1  2  1  0  0  0  0
  2  3  1  0  0  0  0
  3  4  1  0  0  0  0
  4  5  1  0  0  0  0
  1  6  1  0  0  0  0
  5  6  1  0  0  0  0
  1  7  1  0  0  0  0
  5  8  1  0  0  0  0
  7  8  1  0  0  0  0
  6  9  1  0  0  0  0
  1 10  1  0  0  0  0
  8 11  2  0  0  0  0
  2 12  1  0  0  0  0
 12 13  2  0  0  0  0
  2 14  1  0  0  0  0
 10 15  1  0  0  0  0
 12 16  1  0  0  0  0
  3 17  1  0  0  0  0
  3 18  1  0  0  0  0
  4 19  1  0  0  0  0
  4 20  1  0  0  0  0
  5 21  1  0  0  0  0
  6 22  1  0  0  0  0
  7 23  1  0  0  0  0
  7 24  1  0  0  0  0
  9 25  1  0  0  0  0
 10 26  1  0  0  0  0
 10 27  1  0  0  0  0
 11 28  1  0  0  0  0
 11 29  1  0  0  0  0
 13 30  1  0  0  0  0
 13 31  1  0  0  0  0
 15 32  1  0  0  0  0
 16 33  1  0  0  0  0
 16 34  1  0  0  0  0
 16 35  1  0  0  0  0
M  END
