 xtb: 6.7.1 (edcfbbe)
          08092615283D

 35 36  0     0  0            999 V2000
    0.1076   -0.5672    0.4346 c   0  0  0  0  0  0  0  0  0  0  0  0
   -0.9094    0.5569    0.7497 c   0  0  0  0  0  0  0  0  0  0  0  0
   -0.3353    1.9582    0.4396 c   0  0  0  0  0  0  0  0  0  0  0  0
    0.5770    2.0443   -0.7847 c   0  0  0  0  0  0  0  0  0  0  0  0
    1.5318    0.8471   -0.8273 c   0  0  0  0  0  0  0  0  0  0  0  0
    0.6821   -0.4131   -0.9855 c   0  0  0  0  0  0  0  0  0  0  0  0
    1.3700   -0.3415    1.2907 c   0  0  0  0  0  0  0  0  0  0  0  0
    2.1870    0.6564    0.5163 c   0  0  0  0  0  0  0  0  0  0  0  0
    1.4375   -1.5708   -1.3087 o   0  0  0  0  0  0  0  0  0  0  0  0
   -0.5158   -1.9598    0.6645 c   0  0  0  0  0  0  0  0  0  0  0  0
    3.2882    1.2576    0.9269 c   0  0  0  0  0  0  0  0  0  0  0  0
   -2.2984    0.3504    0.1844 c   0  0  0  0  0  0  0  0  0  0  0  0
   -3.3115    0.1421    1.0134 c   0  0  0  0  0  0  0  0  0  0  0  0
   -1.0437    0.5189    1.8380 h   0  0  0  0  0  0  0  0  0  0  0  0
   -1.1375   -2.4906   -0.4764 o   0  0  0  0  0  0  0  0  0  0  0  0
   -2.5395    0.3985   -1.2932 c   0  0  0  0  0  0  0  0  0  0  0  0
   -1.1632    2.6618    0.3312 h   0  0  0  0  0  0  0  0  0  0  0  0
    0.2488    2.2776    1.3050 h   0  0  0  0  0  0  0  0  0  0  0  0
   -0.0017    2.0690   -1.7104 h   0  0  0  0  0  0  0  0  0  0  0  0
    1.1518    2.9713   -0.7308 h   0  0  0  0  0  0  0  0  0  0  0  0
    2.2584    0.9717   -1.6367 h   0  0  0  0  0  0  0  0  0  0  0  0
   -0.0932   -0.2740   -1.7466 h   0  0  0  0  0  0  0  0  0  0  0  0
    1.9318   -1.2752    1.3710 h   0  0  0  0  0  0  0  0  0  0  0  0
    1.1403   -0.0016    2.3002 h   0  0  0  0  0  0  0  0  0  0  0  0
    2.0648   -1.3450   -2.0028 h   0  0  0  0  0  0  0  0  0  0  0  0
   -1.2934   -1.8986    1.4291 h   0  0  0  0  0  0  0  0  0  0  0  0
    0.2638   -2.6494    1.0157 h   0  0  0  0  0  0  0  0  0  0  0  0
    3.6964    1.0843    1.9081 h   0  0  0  0  0  0  0  0  0  0  0  0
    3.8257    1.9482    0.2992 h   0  0  0  0  0  0  0  0  0  0  0  0
   -4.3177    0.0057    0.6549 h   0  0  0  0  0  0  0  0  0  0  0  0
   -3.1837    0.0892    2.0819 h   0  0  0  0  0  0  0  0  0  0  0  0
   -0.4387   -2.6314   -1.1286 h   0  0  0  0  0  0  0  0  0  0  0  0
   -3.5992    0.5395   -1.4932 h   0  0  0  0  0  0  0  0  0  0  0  0
   -1.9881    1.2070   -1.7663 h   0  0  0  0  0  0  0  0  0  0  0  0
   -2.2408   -0.5487   -1.7402 h   0  0  0  0  0  0  0  0  0  0  0  0
  1  2  1  0  0  0  0
  2  3  1  0  0  0  0
  3  4  1  0  0  0  0
  4  5  1  0  0  0  0
  1  6  1  0  0  0  0
  5  6  1  0  0  0  0
  1  7  1  0  0  0  0
  5  8  1  0  0  0  0
  7  8  1  0  0  0  0
  6  9  1  0  0  0  0
  1 10  1  0  0  0  0
  8 11  2  0  0  0  0
  2 12  1  0  0  0  0
 12 13  2  0  0  0  0
  2 14  1  0  0  0  0
 10 15  1  0  0  0  0
 12 16  1  0  0  0  0
  3 17  1  0  0  0  0
  3 18  1  0  0  0  0
  4 19  1  0  0  0  0
  4 20  1  0  0  0  0
  5 21  1  0  0  0  0
  6 22  1  0  0  0  0
  7 23  1  0  0  0  0
  7 24  1  0  0  0  0
  9 25  1  0  0  0  0
 10 26  1  0  0  0  0
 10 27  1  0  0  0  0
 11 28  1  0  0  0  0
 11 29  1  0  0  0  0
 13 30  1  0  0  0  0
 13 31  1  0  0  0  0
 15 32  1  0  0  0  0
 16 33  1  0  0  0  0
 16 34  1  0  0  0  0
 16 35  1  0  0  0  0
M  END
