 xtb: 6.7.1 (edcfbbe)
          08092617483D

 35 36  0     0  0            999 V2000
    0.0101   -0.7577   -0.0405 c   0  0  0  0  0  0  0  0  0  0  0  0
    0.6214    0.4735   -0.7702 c   0  0  0  0  0  0  0  0  0  0  0  0
   -0.4279    1.5975   -0.8990 c   0  0  0  0  0  0  0  0  0  0  0  0
   -1.3036    1.8106    0.3370 c   0  0  0  0  0  0  0  0  0  0  0  0
   -1.8075    0.4703    0.8784 c   0  0  0  0  0  0  0  0  0  0  0  0
   -0.6079   -0.3870    1.3248 c   0  0  0  0  0  0  0  0  0  0  0  0
   -1.2521   -1.2080   -0.8039 c   0  0  0  0  0  0  0  0  0  0  0  0
   -2.3663   -0.3540   -0.2490 c   0  0  0  0  0  0  0  0  0  0  0  0
    0.2465    0.1593    2.2801 o   0  0  0  0  0  0  0  0  0  0  0  0
    1.0127   -1.9053    0.1281 c   0  0  0  0  0  0  0  0  0  0  0  0
   -3.6118   -0.3317   -0.6855 c   0  0  0  0  0  0  0  0  0  0  0  0
    1.9553    0.9664   -0.2397 c   0  0  0  0  0  0  0  0  0  0  0  0
    2.1112    1.9825    0.5999 c   0  0  0  0  0  0  0  0  0  0  0  0
    0.8413    0.1256   -1.7882 h   0  0  0  0  0  0  0  0  0  0  0  0
    1.5501   -2.3807   -1.0845 o   0  0  0  0  0  0  0  0  0  0  0  0
    3.1652    0.3232   -0.8554 c   0  0  0  0  0  0  0  0  0  0  0  0
    0.0824    2.5280   -1.1556 h   0  0  0  0  0  0  0  0  0  0  0  0
   -1.0902    1.3538   -1.7323 h   0  0  0  0  0  0  0  0  0  0  0  0
   -0.7673    2.3303    1.1321 h   0  0  0  0  0  0  0  0  0  0  0  0
   -2.1569    2.4332    0.0592 h   0  0  0  0  0  0  0  0  0  0  0  0
   -2.5251    0.6351    1.6837 h   0  0  0  0  0  0  0  0  0  0  0  0
   -0.9948   -1.3029    1.7923 h   0  0  0  0  0  0  0  0  0  0  0  0
   -1.1590   -1.0991   -1.8857 h   0  0  0  0  0  0  0  0  0  0  0  0
   -1.4650   -2.2603   -0.5902 h   0  0  0  0  0  0  0  0  0  0  0  0
    0.7906    0.8378    1.8583 h   0  0  0  0  0  0  0  0  0  0  0  0
    0.5162   -2.7244    0.6692 h   0  0  0  0  0  0  0  0  0  0  0  0
    1.8597   -1.5755    0.7330 h   0  0  0  0  0  0  0  0  0  0  0  0
   -3.9361   -0.9411   -1.5125 h   0  0  0  0  0  0  0  0  0  0  0  0
   -4.3586    0.2967   -0.2316 h   0  0  0  0  0  0  0  0  0  0  0  0
    3.0966    2.3034    0.8952 h   0  0  0  0  0  0  0  0  0  0  0  0
    1.3043    2.5692    1.0035 h   0  0  0  0  0  0  0  0  0  0  0  0
    0.8279   -2.7138   -1.6281 h   0  0  0  0  0  0  0  0  0  0  0  0
    3.0182   -0.7362   -1.0367 h   0  0  0  0  0  0  0  0  0  0  0  0
    3.3577    0.7947   -1.8208 h   0  0  0  0  0  0  0  0  0  0  0  0
    4.0436    0.4651   -0.2310 h   0  0  0  0  0  0  0  0  0  0  0  0
  1  2  1  0  0  0  0
  2  3  1  0  0  0  0
  3  4  1  0  0  0  0
  4  5  1  0  0  0  0
  1  6  1  0  0  0  0
  5  6  1  0  0  0  0
  1  7  1  0  0  0  0
  5  8  1  0  0  0  0
  7  8  1  0  0  0  0
  6  9  1  0  0  0  0
  1 10  1  0  0  0  0
  8 11  2  0  0  0  0
  2 12  1  0  0  0  0
 12 13  2  0  0  0  0
  2 14  1  0  0  0  0
 10 15  1  0  0  0  0
 12 16  1  0  0  0  0
  3 17  1  0  0  0  0
  3 18  1  0  0  0  0
  4 19  1  0  0  0  0
  4 20  1  0  0  0  0
  5 21  1  0  0  0  0
  6 22  1  0  0  0  0
  7 23  1  0  0  0  0
  7 24  1  0  0  0  0
  9 25  1  0  0  0  0
 10 26  1  0  0  0  0
 10 27  1  0  0  0  0
 11 28  1  0  0  0  0
 11 29  1  0  0  0  0
 13 30  1  0  0  0  0
 13 31  1  0  0  0  0
 15 32  1  0  0  0  0
 16 33  1  0  0  0  0
 16 34  1  0  0  0  0
 16 35  1  0  0  0  0
M  END
