 xtb: 6.7.1 (edcfbbe)
          08092616283D

 35 36  0     0  0            999 V2000
    0.0861   -0.6464    0.0832 c   0  0  0  0  0  0  0  0  0  0  0  0
   -0.9544    0.3232    0.7074 c   0  0  0  0  0  0  0  0  0  0  0  0
   -0.3531    1.7315    0.8710 c   0  0  0  0  0  0  0  0  0  0  0  0
    0.4936    2.2049   -0.3111 c   0  0  0  0  0  0  0  0  0  0  0  0
    1.4473    1.0954   -0.7666 c   0  0  0  0  0  0  0  0  0  0  0  0
    0.6136   -0.0925   -1.2557 c   0  0  0  0  0  0  0  0  0  0  0  0
    1.3621   -0.6360    0.9502 c   0  0  0  0  0  0  0  0  0  0  0  0
    2.1771    0.5151    0.4193 c   0  0  0  0  0  0  0  0  0  0  0  0
    1.3811   -1.0264   -1.9904 o   0  0  0  0  0  0  0  0  0  0  0  0
   -0.4863   -2.0565   -0.0636 c   0  0  0  0  0  0  0  0  0  0  0  0
    3.3347    0.9361    0.8964 c   0  0  0  0  0  0  0  0  0  0  0  0
   -2.3170    0.3111    0.0404 c   0  0  0  0  0  0  0  0  0  0  0  0
   -3.2666   -0.4789    0.5248 c   0  0  0  0  0  0  0  0  0  0  0  0
   -1.1284   -0.0724    1.7149 h   0  0  0  0  0  0  0  0  0  0  0  0
   -0.7655   -2.5879    1.2203 o   0  0  0  0  0  0  0  0  0  0  0  0
   -2.6181    1.2195   -1.1152 c   0  0  0  0  0  0  0  0  0  0  0  0
   -1.1568    2.4441    1.0640 h   0  0  0  0  0  0  0  0  0  0  0  0
    0.2845    1.7262    1.7570 h   0  0  0  0  0  0  0  0  0  0  0  0
   -0.1314    2.4962   -1.1552 h   0  0  0  0  0  0  0  0  0  0  0  0
    1.0719    3.0791   -0.0045 h   0  0  0  0  0  0  0  0  0  0  0  0
    2.1238    1.4675   -1.5398 h   0  0  0  0  0  0  0  0  0  0  0  0
   -0.1826    0.1930   -1.9414 h   0  0  0  0  0  0  0  0  0  0  0  0
    1.9042   -1.5784    0.8359 h   0  0  0  0  0  0  0  0  0  0  0  0
    1.1345   -0.5331    2.0105 h   0  0  0  0  0  0  0  0  0  0  0  0
    2.1749   -1.2270   -1.4767 h   0  0  0  0  0  0  0  0  0  0  0  0
    0.2460   -2.6892   -0.5836 h   0  0  0  0  0  0  0  0  0  0  0  0
   -1.3996   -2.0186   -0.6706 h   0  0  0  0  0  0  0  0  0  0  0  0
    3.7942    0.4779    1.7565 h   0  0  0  0  0  0  0  0  0  0  0  0
    3.8657    1.7602    0.4503 h   0  0  0  0  0  0  0  0  0  0  0  0
   -4.2531   -0.5182    0.0922 h   0  0  0  0  0  0  0  0  0  0  0  0
   -3.0920   -1.1294    1.3656 h   0  0  0  0  0  0  0  0  0  0  0  0
   -1.1521   -3.4638    1.1084 h   0  0  0  0  0  0  0  0  0  0  0  0
   -2.4043    2.2551   -0.8614 h   0  0  0  0  0  0  0  0  0  0  0  0
   -2.0316    0.9584   -1.9936 h   0  0  0  0  0  0  0  0  0  0  0  0
   -3.6705    1.1435   -1.3798 h   0  0  0  0  0  0  0  0  0  0  0  0
  1  2  1  0  0  0  0
  2  3  1  0  0  0  0
  3  4  1  0  0  0  0
  4  5  1  0  0  0  0
  1  6  1  0  0  0  0
  5  6  1  0  0  0  0
  1  7  1  0  0  0  0
  5  8  1  0  0  0  0
  7  8  1  0  0  0  0
  6  9  1  0  0  0  0
  1 10  1  0  0  0  0
  8 11  2  0  0  0  0
  2 12  1  0  0  0  0
 12 13  2  0  0  0  0
  2 14  1  0  0  0  0
 10 15  1  0  0  0  0
 12 16  1  0  0  0  0
  3 17  1  0  0  0  0
  3 18  1  0  0  0  0
  4 19  1  0  0  0  0
  4 20  1  0  0  0  0
  5 21  1  0  0  0  0
  6 22  1  0  0  0  0
  7 23  1  0  0  0  0
  7 24  1  0  0  0  0
  9 25  1  0  0  0  0
 10 26  1  0  0  0  0
 10 27  1  0  0  0  0
 11 28  1  0  0  0  0
 11 29  1  0  0  0  0
 13 30  1  0  0  0  0
 13 31  1  0  0  0  0
 15 32  1  0  0  0  0
 16 33  1  0  0  0  0
 16 34  1  0  0  0  0
 16 35  1  0  0  0  0
M  END
