 xtb: 6.7.1 (edcfbbe)
          08092616283D

 35 36  0     0  0            999 V2000
    0.0829   -0.6193    0.1008 c   0  0  0  0  0  0  0  0  0  0  0  0
   -0.9475    0.4022    0.6525 c   0  0  0  0  0  0  0  0  0  0  0  0
   -0.3252    1.8126    0.7424 c   0  0  0  0  0  0  0  0  0  0  0  0
    0.5738    2.2060   -0.4303 c   0  0  0  0  0  0  0  0  0  0  0  0
    1.4940    1.0451   -0.8190 c   0  0  0  0  0  0  0  0  0  0  0  0
    0.6257   -0.1389   -1.2547 c   0  0  0  0  0  0  0  0  0  0  0  0
    1.3529   -0.5980    0.9740 c   0  0  0  0  0  0  0  0  0  0  0  0
    2.1939    0.5119    0.4055 c   0  0  0  0  0  0  0  0  0  0  0  0
    1.3833   -1.1753   -1.8582 o   0  0  0  0  0  0  0  0  0  0  0  0
   -0.5040   -2.0320   -0.0025 c   0  0  0  0  0  0  0  0  0  0  0  0
    3.3459    0.9450    0.8841 c   0  0  0  0  0  0  0  0  0  0  0  0
   -2.2912    0.3906   -0.0533 c   0  0  0  0  0  0  0  0  0  0  0  0
   -2.5536    1.0056   -1.1970 c   0  0  0  0  0  0  0  0  0  0  0  0
   -1.1482    0.0994    1.6877 h   0  0  0  0  0  0  0  0  0  0  0  0
   -0.7922   -2.6192    1.2479 o   0  0  0  0  0  0  0  0  0  0  0  0
   -3.3934   -0.3226    0.6820 c   0  0  0  0  0  0  0  0  0  0  0  0
   -1.1282    2.5448    0.8472 h   0  0  0  0  0  0  0  0  0  0  0  0
    0.2790    1.8566    1.6505 h   0  0  0  0  0  0  0  0  0  0  0  0
   -0.0161    2.5005   -1.2990 h   0  0  0  0  0  0  0  0  0  0  0  0
    1.1785    3.0663   -0.1365 h   0  0  0  0  0  0  0  0  0  0  0  0
    2.1939    1.3611   -1.5975 h   0  0  0  0  0  0  0  0  0  0  0  0
   -0.1799    0.1539   -1.9380 h   0  0  0  0  0  0  0  0  0  0  0  0
    1.8769   -1.5503    0.8675 h   0  0  0  0  0  0  0  0  0  0  0  0
    1.1359   -0.4584    2.0327 h   0  0  0  0  0  0  0  0  0  0  0  0
    1.8855   -0.7924   -2.5884 h   0  0  0  0  0  0  0  0  0  0  0  0
    0.2318   -2.6879   -0.4716 h   0  0  0  0  0  0  0  0  0  0  0  0
   -1.3981   -2.0131   -0.6408 h   0  0  0  0  0  0  0  0  0  0  0  0
    3.7840    0.5244    1.7736 h   0  0  0  0  0  0  0  0  0  0  0  0
    3.8979    1.7370    0.4059 h   0  0  0  0  0  0  0  0  0  0  0  0
   -3.5407    0.9757   -1.6294 h   0  0  0  0  0  0  0  0  0  0  0  0
   -1.8255    1.5659   -1.7529 h   0  0  0  0  0  0  0  0  0  0  0  0
   -1.3855   -2.0271    1.7295 h   0  0  0  0  0  0  0  0  0  0  0  0
   -3.4946    0.0802    1.6899 h   0  0  0  0  0  0  0  0  0  0  0  0
   -4.3424   -0.1999    0.1660 h   0  0  0  0  0  0  0  0  0  0  0  0
   -3.1922   -1.3897    0.7653 h   0  0  0  0  0  0  0  0  0  0  0  0
  1  2  1  0  0  0  0
  2  3  1  0  0  0  0
  3  4  1  0  0  0  0
  4  5  1  0  0  0  0
  1  6  1  0  0  0  0
  5  6  1  0  0  0  0
  1  7  1  0  0  0  0
  5  8  1  0  0  0  0
  7  8  1  0  0  0  0
  6  9  1  0  0  0  0
  1 10  1  0  0  0  0
  8 11  2  0  0  0  0
  2 12  1  0  0  0  0
 12 13  2  0  0  0  0
  2 14  1  0  0  0  0
 10 15  1  0  0  0  0
 12 16  1  0  0  0  0
  3 17  1  0  0  0  0
  3 18  1  0  0  0  0
  4 19  1  0  0  0  0
  4 20  1  0  0  0  0
  5 21  1  0  0  0  0
  6 22  1  0  0  0  0
  7 23  1  0  0  0  0
  7 24  1  0  0  0  0
  9 25  1  0  0  0  0
 10 26  1  0  0  0  0
 10 27  1  0  0  0  0
 11 28  1  0  0  0  0
 11 29  1  0  0  0  0
 13 30  1  0  0  0  0
 13 31  1  0  0  0  0
 15 32  1  0  0  0  0
 16 33  1  0  0  0  0
 16 34  1  0  0  0  0
 16 35  1  0  0  0  0
M  END
