 xtb: 6.7.1 (edcfbbe)
          08092616283D

 35 36  0     0  0            999 V2000
    0.1127   -0.5615    0.4492 c   0  0  0  0  0  0  0  0  0  0  0  0
   -0.9157    0.5588    0.7455 c   0  0  0  0  0  0  0  0  0  0  0  0
   -0.3412    1.9589    0.4310 c   0  0  0  0  0  0  0  0  0  0  0  0
    0.5786    2.0407   -0.7888 c   0  0  0  0  0  0  0  0  0  0  0  0
    1.5351    0.8439   -0.8247 c   0  0  0  0  0  0  0  0  0  0  0  0
    0.6843   -0.4170   -0.9726 c   0  0  0  0  0  0  0  0  0  0  0  0
    1.3701   -0.3183    1.3087 c   0  0  0  0  0  0  0  0  0  0  0  0
    2.1947    0.6611    0.5179 c   0  0  0  0  0  0  0  0  0  0  0  0
    1.4401   -1.5805   -1.2916 o   0  0  0  0  0  0  0  0  0  0  0  0
   -0.4945   -1.9553    0.6982 c   0  0  0  0  0  0  0  0  0  0  0  0
    3.3070    1.2510    0.9164 c   0  0  0  0  0  0  0  0  0  0  0  0
   -2.2975    0.3366    0.1665 c   0  0  0  0  0  0  0  0  0  0  0  0
   -3.3066    0.0645    0.9829 c   0  0  0  0  0  0  0  0  0  0  0  0
   -1.0620    0.5261    1.8318 h   0  0  0  0  0  0  0  0  0  0  0  0
   -1.1869   -2.4752   -0.4159 o   0  0  0  0  0  0  0  0  0  0  0  0
   -2.5417    0.4524   -1.3080 c   0  0  0  0  0  0  0  0  0  0  0  0
   -1.1691    2.6611    0.3151 h   0  0  0  0  0  0  0  0  0  0  0  0
    0.2364    2.2819    1.2990 h   0  0  0  0  0  0  0  0  0  0  0  0
    0.0065    2.0613   -1.7181 h   0  0  0  0  0  0  0  0  0  0  0  0
    1.1530    2.9676   -0.7339 h   0  0  0  0  0  0  0  0  0  0  0  0
    2.2588    0.9620   -1.6364 h   0  0  0  0  0  0  0  0  0  0  0  0
   -0.0935   -0.2857   -1.7313 h   0  0  0  0  0  0  0  0  0  0  0  0
    1.9295   -1.2507    1.4167 h   0  0  0  0  0  0  0  0  0  0  0  0
    1.1317    0.0454    2.3075 h   0  0  0  0  0  0  0  0  0  0  0  0
    2.0308   -1.3677   -2.0240 h   0  0  0  0  0  0  0  0  0  0  0  0
   -1.2274   -1.9074    1.5061 h   0  0  0  0  0  0  0  0  0  0  0  0
    0.3020   -2.6526    0.9872 h   0  0  0  0  0  0  0  0  0  0  0  0
    3.7176    1.0826    1.8978 h   0  0  0  0  0  0  0  0  0  0  0  0
    3.8509    1.9274    0.2785 h   0  0  0  0  0  0  0  0  0  0  0  0
   -4.3083   -0.0858    0.6158 h   0  0  0  0  0  0  0  0  0  0  0  0
   -3.1798   -0.0325    2.0487 h   0  0  0  0  0  0  0  0  0  0  0  0
   -0.5252   -2.6161   -1.1074 h   0  0  0  0  0  0  0  0  0  0  0  0
   -3.6035    0.5919   -1.4992 h   0  0  0  0  0  0  0  0  0  0  0  0
   -1.9987    1.2875   -1.7410 h   0  0  0  0  0  0  0  0  0  0  0  0
   -2.2360   -0.4678   -1.8045 h   0  0  0  0  0  0  0  0  0  0  0  0
  1  2  1  0  0  0  0
  2  3  1  0  0  0  0
  3  4  1  0  0  0  0
  4  5  1  0  0  0  0
  1  6  1  0  0  0  0
  5  6  1  0  0  0  0
  1  7  1  0  0  0  0
  5  8  1  0  0  0  0
  7  8  1  0  0  0  0
  6  9  1  0  0  0  0
  1 10  1  0  0  0  0
  8 11  2  0  0  0  0
  2 12  1  0  0  0  0
 12 13  2  0  0  0  0
  2 14  1  0  0  0  0
 10 15  1  0  0  0  0
 12 16  1  0  0  0  0
  3 17  1  0  0  0  0
  3 18  1  0  0  0  0
  4 19  1  0  0  0  0
  4 20  1  0  0  0  0
  5 21  1  0  0  0  0
  6 22  1  0  0  0  0
  7 23  1  0  0  0  0
  7 24  1  0  0  0  0
  9 25  1  0  0  0  0
 10 26  1  0  0  0  0
 10 27  1  0  0  0  0
 11 28  1  0  0  0  0
 11 29  1  0  0  0  0
 13 30  1  0  0  0  0
 13 31  1  0  0  0  0
 15 32  1  0  0  0  0
 16 33  1  0  0  0  0
 16 34  1  0  0  0  0
 16 35  1  0  0  0  0
M  END
