 xtb: 6.7.1 (edcfbbe)
          08092612003D

 54 57  0     0  0            999 V2000
    1.7146    0.9612    2.3079 c   0  0  0  0  0  0  0  0  0  0  0  0
    2.1141    1.7400    1.0686 c   0  0  0  0  0  0  0  0  0  0  0  0
    2.6241    0.7949   -0.0296 c   0  0  0  0  0  0  0  0  0  0  0  0
    1.6962   -0.4898   -0.1507 c   0  0  0  0  0  0  0  0  0  0  0  0
    0.3032   -0.3312    0.5421 c   0  0  0  0  0  0  0  0  0  0  0  0
    0.4947    0.0766    2.0316 c   0  0  0  0  0  0  0  0  0  0  0  0
    1.4358   -0.8373   -1.6280 c   0  0  0  0  0  0  0  0  0  0  0  0
    0.5913   -2.0988   -1.7907 c   0  0  0  0  0  0  0  0  0  0  0  0
   -0.7401   -2.0130   -1.0424 c   0  0  0  0  0  0  0  0  0  0  0  0
   -0.5594   -1.6642    0.4596 c   0  0  0  0  0  0  0  0  0  0  0  0
   -0.7637    0.6634   -0.0148 c   0  0  0  0  0  0  0  0  0  0  0  0
   -1.9067   -1.1701    1.0108 c   0  0  0  0  0  0  0  0  0  0  0  0
   -2.0083    0.1986    0.4393 c   0  0  0  0  0  0  0  0  0  0  0  0
   -3.2061    0.8686    0.2868 c   0  0  0  0  0  0  0  0  0  0  0  0
   -3.1965    2.0877   -0.3756 c   0  0  0  0  0  0  0  0  0  0  0  0
   -2.0074    2.5380   -0.8925 c   0  0  0  0  0  0  0  0  0  0  0  0
   -0.7914    1.8521   -0.7511 c   0  0  0  0  0  0  0  0  0  0  0  0
    0.2066    2.4681   -1.4264 o   0  0  0  0  0  0  0  0  0  0  0  0
   -4.3522    0.2971    0.7791 o   0  0  0  0  0  0  0  0  0  0  0  0
    2.6325    1.5592   -1.2383 o   0  0  0  0  0  0  0  0  0  0  0  0
    4.1099    0.5016    0.2442 c   0  0  0  0  0  0  0  0  0  0  0  0
    2.4658   -1.6641    0.4768 c   0  0  0  0  0  0  0  0  0  0  0  0
   -1.5374   -3.2947   -1.2900 c   0  0  0  0  0  0  0  0  0  0  0  0
   -0.1736   -2.9084    1.2725 c   0  0  0  0  0  0  0  0  0  0  0  0
    2.5608    0.3630    2.6502 h   0  0  0  0  0  0  0  0  0  0  0  0
    1.4763    1.6597    3.1119 h   0  0  0  0  0  0  0  0  0  0  0  0
    2.8989    2.4607    1.3035 h   0  0  0  0  0  0  0  0  0  0  0  0
    1.2550    2.3051    0.7149 h   0  0  0  0  0  0  0  0  0  0  0  0
   -0.3963    0.6184    2.3487 h   0  0  0  0  0  0  0  0  0  0  0  0
    0.5671   -0.8112    2.6577 h   0  0  0  0  0  0  0  0  0  0  0  0
    0.9070   -0.0161   -2.1149 h   0  0  0  0  0  0  0  0  0  0  0  0
    2.3864   -0.9905   -2.1496 h   0  0  0  0  0  0  0  0  0  0  0  0
    0.3803   -2.2335   -2.8549 h   0  0  0  0  0  0  0  0  0  0  0  0
    1.1507   -2.9790   -1.4709 h   0  0  0  0  0  0  0  0  0  0  0  0
   -1.3058   -1.1883   -1.4884 h   0  0  0  0  0  0  0  0  0  0  0  0
   -1.9003   -1.1549    2.1023 h   0  0  0  0  0  0  0  0  0  0  0  0
   -2.7509   -1.7842    0.7005 h   0  0  0  0  0  0  0  0  0  0  0  0
   -4.1071    2.6553   -0.5095 h   0  0  0  0  0  0  0  0  0  0  0  0
   -1.9663    3.4586   -1.4532 h   0  0  0  0  0  0  0  0  0  0  0  0
    1.0820    2.0477   -1.3232 h   0  0  0  0  0  0  0  0  0  0  0  0
   -5.0966    0.8756    0.5792 h   0  0  0  0  0  0  0  0  0  0  0  0
    3.0987    1.0696   -1.9243 h   0  0  0  0  0  0  0  0  0  0  0  0
    4.5397   -0.1358   -0.5265 h   0  0  0  0  0  0  0  0  0  0  0  0
    4.6355    1.4553    0.2120 h   0  0  0  0  0  0  0  0  0  0  0  0
    4.2844    0.0535    1.2149 h   0  0  0  0  0  0  0  0  0  0  0  0
    2.6663   -1.4998    1.5289 h   0  0  0  0  0  0  0  0  0  0  0  0
    1.9171   -2.5840    0.3834 h   0  0  0  0  0  0  0  0  0  0  0  0
    3.4095   -1.8151   -0.0385 h   0  0  0  0  0  0  0  0  0  0  0  0
   -2.4854   -3.2828   -0.7605 h   0  0  0  0  0  0  0  0  0  0  0  0
   -1.7504   -3.3866   -2.3532 h   0  0  0  0  0  0  0  0  0  0  0  0
   -0.9837   -4.1789   -0.9842 h   0  0  0  0  0  0  0  0  0  0  0  0
    0.3897   -3.6383    0.6988 h   0  0  0  0  0  0  0  0  0  0  0  0
    0.3905   -2.6685    2.1685 h   0  0  0  0  0  0  0  0  0  0  0  0
   -1.0893   -3.4043    1.5905 h   0  0  0  0  0  0  0  0  0  0  0  0
  1  2  1  0  0  0  0
  2  3  1  0  0  0  0
  3  4  1  0  0  0  0
  4  5  1  0  0  0  0
  1  6  1  0  0  0  0
  5  6  1  0  0  0  0
  4  7  1  0  0  0  0
  7  8  1  0  0  0  0
  8  9  1  0  0  0  0
  5 10  1  0  0  0  0
  9 10  1  0  0  0  0
  5 11  1  0  0  0  0
 10 12  1  0  0  0  0
 11 13  4  0  0  0  0
 12 13  1  0  0  0  0
 13 14  4  0  0  0  0
 14 15  4  0  0  0  0
 15 16  4  0  0  0  0
 11 17  4  0  0  0  0
 16 17  4  0  0  0  0
 17 18  1  0  0  0  0
 14 19  1  0  0  0  0
  3 20  1  0  0  0  0
  3 21  1  0  0  0  0
  4 22  1  0  0  0  0
  9 23  1  0  0  0  0
 10 24  1  0  0  0  0
  1 25  1  0  0  0  0
  1 26  1  0  0  0  0
  2 27  1  0  0  0  0
  2 28  1  0  0  0  0
  6 29  1  0  0  0  0
  6 30  1  0  0  0  0
  7 31  1  0  0  0  0
  7 32  1  0  0  0  0
  8 33  1  0  0  0  0
  8 34  1  0  0  0  0
  9 35  1  0  0  0  0
 12 36  1  0  0  0  0
 12 37  1  0  0  0  0
 15 38  1  0  0  0  0
 16 39  1  0  0  0  0
 18 40  1  0  0  0  0
 19 41  1  0  0  0  0
 20 42  1  0  0  0  0
 21 43  1  0  0  0  0
 21 44  1  0  0  0  0
 21 45  1  0  0  0  0
 22 46  1  0  0  0  0
 22 47  1  0  0  0  0
 22 48  1  0  0  0  0
 23 49  1  0  0  0  0
 23 50  1  0  0  0  0
 23 51  1  0  0  0  0
 24 52  1  0  0  0  0
 24 53  1  0  0  0  0
 24 54  1  0  0  0  0
M  END
