 xtb: 6.7.1 (edcfbbe)
          08092615283D

 35 36  0     0  0            999 V2000
    0.0906   -0.6185    0.0936 c   0  0  0  0  0  0  0  0  0  0  0  0
   -0.9318    0.4006    0.6553 c   0  0  0  0  0  0  0  0  0  0  0  0
   -0.3162    1.8111    0.7430 c   0  0  0  0  0  0  0  0  0  0  0  0
    0.5780    2.2053   -0.4332 c   0  0  0  0  0  0  0  0  0  0  0  0
    1.5003    1.0458   -0.8190 c   0  0  0  0  0  0  0  0  0  0  0  0
    0.6344   -0.1379   -1.2601 c   0  0  0  0  0  0  0  0  0  0  0  0
    1.3611   -0.6081    0.9631 c   0  0  0  0  0  0  0  0  0  0  0  0
    2.1925    0.5158    0.4111 c   0  0  0  0  0  0  0  0  0  0  0  0
    1.3884   -1.1728   -1.8610 o   0  0  0  0  0  0  0  0  0  0  0  0
   -0.5099   -2.0198   -0.0171 c   0  0  0  0  0  0  0  0  0  0  0  0
    3.3315    0.9653    0.9046 c   0  0  0  0  0  0  0  0  0  0  0  0
   -2.2726    0.3697   -0.0479 c   0  0  0  0  0  0  0  0  0  0  0  0
   -2.5560    0.9800   -1.1885 c   0  0  0  0  0  0  0  0  0  0  0  0
   -1.1275    0.0736    1.6820 h   0  0  0  0  0  0  0  0  0  0  0  0
   -0.9159   -2.4717    1.2606 o   0  0  0  0  0  0  0  0  0  0  0  0
   -3.3416   -0.3732    0.7008 c   0  0  0  0  0  0  0  0  0  0  0  0
   -1.1219    2.5404    0.8477 h   0  0  0  0  0  0  0  0  0  0  0  0
    0.2899    1.8600    1.6497 h   0  0  0  0  0  0  0  0  0  0  0  0
   -0.0169    2.4942   -1.3009 h   0  0  0  0  0  0  0  0  0  0  0  0
    1.1805    3.0696   -0.1453 h   0  0  0  0  0  0  0  0  0  0  0  0
    2.2050    1.3639   -1.5937 h   0  0  0  0  0  0  0  0  0  0  0  0
   -0.1713    0.1619   -1.9419 h   0  0  0  0  0  0  0  0  0  0  0  0
    1.8945   -1.5522    0.8354 h   0  0  0  0  0  0  0  0  0  0  0  0
    1.1389   -0.4921    2.0228 h   0  0  0  0  0  0  0  0  0  0  0  0
    1.9104   -0.7899   -2.5742 h   0  0  0  0  0  0  0  0  0  0  0  0
    0.2520   -2.6842   -0.4399 h   0  0  0  0  0  0  0  0  0  0  0  0
   -1.3647   -1.9944   -0.7083 h   0  0  0  0  0  0  0  0  0  0  0  0
    3.7651    0.5497    1.7983 h   0  0  0  0  0  0  0  0  0  0  0  0
    3.8768    1.7674    0.4359 h   0  0  0  0  0  0  0  0  0  0  0  0
   -3.5441    0.9236   -1.6163 h   0  0  0  0  0  0  0  0  0  0  0  0
   -1.8483    1.5676   -1.7435 h   0  0  0  0  0  0  0  0  0  0  0  0
   -1.1337   -3.4064    1.1977 h   0  0  0  0  0  0  0  0  0  0  0  0
   -3.6644    0.2242    1.5546 h   0  0  0  0  0  0  0  0  0  0  0  0
   -4.2071   -0.5659    0.0715 h   0  0  0  0  0  0  0  0  0  0  0  0
   -2.9567   -1.3127    1.0889 h   0  0  0  0  0  0  0  0  0  0  0  0
  1  2  1  0  0  0  0
  2  3  1  0  0  0  0
  3  4  1  0  0  0  0
  4  5  1  0  0  0  0
  1  6  1  0  0  0  0
  5  6  1  0  0  0  0
  1  7  1  0  0  0  0
  5  8  1  0  0  0  0
  7  8  1  0  0  0  0
  6  9  1  0  0  0  0
  1 10  1  0  0  0  0
  8 11  2  0  0  0  0
  2 12  1  0  0  0  0
 12 13  2  0  0  0  0
  2 14  1  0  0  0  0
 10 15  1  0  0  0  0
 12 16  1  0  0  0  0
  3 17  1  0  0  0  0
  3 18  1  0  0  0  0
  4 19  1  0  0  0  0
  4 20  1  0  0  0  0
  5 21  1  0  0  0  0
  6 22  1  0  0  0  0
  7 23  1  0  0  0  0
  7 24  1  0  0  0  0
  9 25  1  0  0  0  0
 10 26  1  0  0  0  0
 10 27  1  0  0  0  0
 11 28  1  0  0  0  0
 11 29  1  0  0  0  0
 13 30  1  0  0  0  0
 13 31  1  0  0  0  0
 15 32  1  0  0  0  0
 16 33  1  0  0  0  0
 16 34  1  0  0  0  0
 16 35  1  0  0  0  0
M  END
