 xtb: 6.7.1 (edcfbbe)
          08092617053D

 35 36  0     0  0            999 V2000
    0.1247   -0.5730    0.4336 c   0  0  0  0  0  0  0  0  0  0  0  0
   -0.9023    0.5421    0.7573 c   0  0  0  0  0  0  0  0  0  0  0  0
   -0.3297    1.9459    0.4608 c   0  0  0  0  0  0  0  0  0  0  0  0
    0.5782    2.0484   -0.7668 c   0  0  0  0  0  0  0  0  0  0  0  0
    1.5349    0.8539   -0.8280 c   0  0  0  0  0  0  0  0  0  0  0  0
    0.6873   -0.4057   -0.9921 c   0  0  0  0  0  0  0  0  0  0  0  0
    1.3877   -0.3480    1.2877 c   0  0  0  0  0  0  0  0  0  0  0  0
    2.2014    0.6498    0.5070 c   0  0  0  0  0  0  0  0  0  0  0  0
    1.5081   -1.4917   -1.3855 o   0  0  0  0  0  0  0  0  0  0  0  0
   -0.4851   -1.9620    0.6645 c   0  0  0  0  0  0  0  0  0  0  0  0
    3.3080    1.2420    0.9173 c   0  0  0  0  0  0  0  0  0  0  0  0
   -2.2858    0.3215    0.1818 c   0  0  0  0  0  0  0  0  0  0  0  0
   -3.2767   -0.0315    0.9906 c   0  0  0  0  0  0  0  0  0  0  0  0
   -1.0414    0.4934    1.8448 h   0  0  0  0  0  0  0  0  0  0  0  0
   -1.2149   -2.3628   -0.4864 o   0  0  0  0  0  0  0  0  0  0  0  0
   -2.5506    0.5286   -1.2784 c   0  0  0  0  0  0  0  0  0  0  0  0
   -1.1576    2.6520    0.3687 h   0  0  0  0  0  0  0  0  0  0  0  0
    0.2586    2.2511    1.3283 h   0  0  0  0  0  0  0  0  0  0  0  0
   -0.0011    2.0805   -1.6908 h   0  0  0  0  0  0  0  0  0  0  0  0
    1.1517    2.9750   -0.7020 h   0  0  0  0  0  0  0  0  0  0  0  0
    2.2526    0.9669   -1.6421 h   0  0  0  0  0  0  0  0  0  0  0  0
   -0.0999   -0.2693   -1.7369 h   0  0  0  0  0  0  0  0  0  0  0  0
    1.9540   -1.2789    1.3688 h   0  0  0  0  0  0  0  0  0  0  0  0
    1.1595   -0.0047    2.2965 h   0  0  0  0  0  0  0  0  0  0  0  0
    0.9292   -2.2582   -1.4834 h   0  0  0  0  0  0  0  0  0  0  0  0
   -1.1411   -1.9299    1.5411 h   0  0  0  0  0  0  0  0  0  0  0  0
    0.3155   -2.6906    0.8574 h   0  0  0  0  0  0  0  0  0  0  0  0
    3.7223    1.0571    1.8944 h   0  0  0  0  0  0  0  0  0  0  0  0
    3.8465    1.9324    0.2905 h   0  0  0  0  0  0  0  0  0  0  0  0
   -4.2792   -0.1854    0.6265 h   0  0  0  0  0  0  0  0  0  0  0  0
   -3.1349   -0.1865    2.0480 h   0  0  0  0  0  0  0  0  0  0  0  0
   -1.7687   -3.1171   -0.2557 h   0  0  0  0  0  0  0  0  0  0  0  0
   -2.0623    1.4259   -1.6471 h   0  0  0  0  0  0  0  0  0  0  0  0
   -2.1868   -0.3260   -1.8469 h   0  0  0  0  0  0  0  0  0  0  0  0
   -3.6205    0.6160   -1.4553 h   0  0  0  0  0  0  0  0  0  0  0  0
  1  2  1  0  0  0  0
  2  3  1  0  0  0  0
  3  4  1  0  0  0  0
  4  5  1  0  0  0  0
  1  6  1  0  0  0  0
  5  6  1  0  0  0  0
  1  7  1  0  0  0  0
  5  8  1  0  0  0  0
  7  8  1  0  0  0  0
  6  9  1  0  0  0  0
  1 10  1  0  0  0  0
  8 11  2  0  0  0  0
  2 12  1  0  0  0  0
 12 13  2  0  0  0  0
  2 14  1  0  0  0  0
 10 15  1  0  0  0  0
 12 16  1  0  0  0  0
  3 17  1  0  0  0  0
  3 18  1  0  0  0  0
  4 19  1  0  0  0  0
  4 20  1  0  0  0  0
  5 21  1  0  0  0  0
  6 22  1  0  0  0  0
  7 23  1  0  0  0  0
  7 24  1  0  0  0  0
  9 25  1  0  0  0  0
 10 26  1  0  0  0  0
 10 27  1  0  0  0  0
 11 28  1  0  0  0  0
 11 29  1  0  0  0  0
 13 30  1  0  0  0  0
 13 31  1  0  0  0  0
 15 32  1  0  0  0  0
 16 33  1  0  0  0  0
 16 34  1  0  0  0  0
 16 35  1  0  0  0  0
M  END
