 xtb: 6.7.1 (edcfbbe)
          08092617053D

 35 36  0     0  0            999 V2000
    0.0923   -0.6479    0.0753 c   0  0  0  0  0  0  0  0  0  0  0  0
   -0.9525    0.3061    0.7173 c   0  0  0  0  0  0  0  0  0  0  0  0
   -0.3548    1.7119    0.9063 c   0  0  0  0  0  0  0  0  0  0  0  0
    0.4702    2.2115   -0.2803 c   0  0  0  0  0  0  0  0  0  0  0  0
    1.4296    1.1173   -0.7610 c   0  0  0  0  0  0  0  0  0  0  0  0
    0.6041   -0.0745   -1.2554 c   0  0  0  0  0  0  0  0  0  0  0  0
    1.3829   -0.6423    0.9230 c   0  0  0  0  0  0  0  0  0  0  0  0
    2.1738    0.5332    0.4123 c   0  0  0  0  0  0  0  0  0  0  0  0
    1.4007   -1.0481   -1.9138 o   0  0  0  0  0  0  0  0  0  0  0  0
   -0.4639   -2.0676   -0.0886 c   0  0  0  0  0  0  0  0  0  0  0  0
    3.3211    0.9723    0.8966 c   0  0  0  0  0  0  0  0  0  0  0  0
   -2.3129    0.2992    0.0426 c   0  0  0  0  0  0  0  0  0  0  0  0
   -3.2383   -0.5551    0.4595 c   0  0  0  0  0  0  0  0  0  0  0  0
   -1.1329   -0.1053    1.7177 h   0  0  0  0  0  0  0  0  0  0  0  0
   -0.8172   -2.6717    1.1386 o   0  0  0  0  0  0  0  0  0  0  0  0
   -2.6397    1.2832   -1.0428 c   0  0  0  0  0  0  0  0  0  0  0  0
   -1.1567    2.4177    1.1285 h   0  0  0  0  0  0  0  0  0  0  0  0
    0.2984    1.6899    1.7807 h   0  0  0  0  0  0  0  0  0  0  0  0
   -0.1706    2.5092   -1.1103 h   0  0  0  0  0  0  0  0  0  0  0  0
    1.0447    3.0865    0.0306 h   0  0  0  0  0  0  0  0  0  0  0  0
    2.1002    1.5108   -1.5298 h   0  0  0  0  0  0  0  0  0  0  0  0
   -0.2100    0.2237   -1.9246 h   0  0  0  0  0  0  0  0  0  0  0  0
    1.9476   -1.5594    0.7339 h   0  0  0  0  0  0  0  0  0  0  0  0
    1.1877   -0.5714    1.9932 h   0  0  0  0  0  0  0  0  0  0  0  0
    1.8778   -0.6107   -2.6302 h   0  0  0  0  0  0  0  0  0  0  0  0
    0.2791   -2.6782   -0.6164 h   0  0  0  0  0  0  0  0  0  0  0  0
   -1.3801   -2.0477   -0.6820 h   0  0  0  0  0  0  0  0  0  0  0  0
    3.7920    0.5106    1.7484 h   0  0  0  0  0  0  0  0  0  0  0  0
    3.8358    1.8128    0.4621 h   0  0  0  0  0  0  0  0  0  0  0  0
   -4.2198   -0.5923    0.0153 h   0  0  0  0  0  0  0  0  0  0  0  0
   -3.0469   -1.2696    1.2421 h   0  0  0  0  0  0  0  0  0  0  0  0
   -0.0219   -2.7223    1.6844 h   0  0  0  0  0  0  0  0  0  0  0  0
   -2.0302    1.1193   -1.9291 h   0  0  0  0  0  0  0  0  0  0  0  0
   -3.6835    1.1797   -1.3305 h   0  0  0  0  0  0  0  0  0  0  0  0
   -2.4794    2.3050   -0.7058 h   0  0  0  0  0  0  0  0  0  0  0  0
  1  2  1  0  0  0  0
  2  3  1  0  0  0  0
  3  4  1  0  0  0  0
  4  5  1  0  0  0  0
  1  6  1  0  0  0  0
  5  6  1  0  0  0  0
  1  7  1  0  0  0  0
  5  8  1  0  0  0  0
  7  8  1  0  0  0  0
  6  9  1  0  0  0  0
  1 10  1  0  0  0  0
  8 11  2  0  0  0  0
  2 12  1  0  0  0  0
 12 13  2  0  0  0  0
  2 14  1  0  0  0  0
 10 15  1  0  0  0  0
 12 16  1  0  0  0  0
  3 17  1  0  0  0  0
  3 18  1  0  0  0  0
  4 19  1  0  0  0  0
  4 20  1  0  0  0  0
  5 21  1  0  0  0  0
  6 22  1  0  0  0  0
  7 23  1  0  0  0  0
  7 24  1  0  0  0  0
  9 25  1  0  0  0  0
 10 26  1  0  0  0  0
 10 27  1  0  0  0  0
 11 28  1  0  0  0  0
 11 29  1  0  0  0  0
 13 30  1  0  0  0  0
 13 31  1  0  0  0  0
 15 32  1  0  0  0  0
 16 33  1  0  0  0  0
 16 34  1  0  0  0  0
 16 35  1  0  0  0  0
M  END
