 xtb: 6.7.1 (edcfbbe)
          08092617483D

 35 36  0     0  0            999 V2000
   -0.0686   -0.7776   -0.3288 c   0  0  0  0  0  0  0  0  0  0  0  0
    0.5389    0.5314   -0.9118 c   0  0  0  0  0  0  0  0  0  0  0  0
   -0.4809    1.6870   -0.8034 c   0  0  0  0  0  0  0  0  0  0  0  0
   -1.2638    1.7446    0.5097 c   0  0  0  0  0  0  0  0  0  0  0  0
   -1.7741    0.3530    0.8920 c   0  0  0  0  0  0  0  0  0  0  0  0
   -0.5810   -0.5905    1.1153 c   0  0  0  0  0  0  0  0  0  0  0  0
   -1.3957   -1.0648   -1.0587 c   0  0  0  0  0  0  0  0  0  0  0  0
   -2.4386   -0.2805   -0.3008 c   0  0  0  0  0  0  0  0  0  0  0  0
    0.3709   -0.2100    2.0707 o   0  0  0  0  0  0  0  0  0  0  0  0
    0.8773   -1.9848   -0.4062 c   0  0  0  0  0  0  0  0  0  0  0  0
   -3.7110   -0.1634   -0.6315 c   0  0  0  0  0  0  0  0  0  0  0  0
    1.9217    0.9295   -0.4240 c   0  0  0  0  0  0  0  0  0  0  0  0
    2.1525    1.8369    0.5167 c   0  0  0  0  0  0  0  0  0  0  0  0
    0.6663    0.3290   -1.9838 h   0  0  0  0  0  0  0  0  0  0  0  0
    1.9569   -1.9303    0.4898 o   0  0  0  0  0  0  0  0  0  0  0  0
    3.0772    0.3161   -1.1589 c   0  0  0  0  0  0  0  0  0  0  0  0
    0.0400    2.6326   -0.9657 h   0  0  0  0  0  0  0  0  0  0  0  0
   -1.2066    1.5775   -1.6116 h   0  0  0  0  0  0  0  0  0  0  0  0
   -0.6618    2.1403    1.3294 h   0  0  0  0  0  0  0  0  0  0  0  0
   -2.1145    2.4173    0.3807 h   0  0  0  0  0  0  0  0  0  0  0  0
   -2.4278    0.4157    1.7637 h   0  0  0  0  0  0  0  0  0  0  0  0
   -0.9654   -1.5536    1.4789 h   0  0  0  0  0  0  0  0  0  0  0  0
   -1.3630   -0.7954   -2.1145 h   0  0  0  0  0  0  0  0  0  0  0  0
   -1.6316   -2.1309   -1.0039 h   0  0  0  0  0  0  0  0  0  0  0  0
    0.8469    0.5645    1.7390 h   0  0  0  0  0  0  0  0  0  0  0  0
    1.3047   -2.0782   -1.4093 h   0  0  0  0  0  0  0  0  0  0  0  0
    0.2843   -2.8932   -0.2073 h   0  0  0  0  0  0  0  0  0  0  0  0
   -4.1135   -0.6327   -1.5133 h   0  0  0  0  0  0  0  0  0  0  0  0
   -4.4014    0.4052   -0.0325 h   0  0  0  0  0  0  0  0  0  0  0  0
    3.1606    2.1087    0.7818 h   0  0  0  0  0  0  0  0  0  0  0  0
    1.3863    2.3758    1.0473 h   0  0  0  0  0  0  0  0  0  0  0  0
    1.6224   -1.6132    1.3429 h   0  0  0  0  0  0  0  0  0  0  0  0
    3.2008   -0.7242   -0.8690 h   0  0  0  0  0  0  0  0  0  0  0  0
    2.9126    0.3559   -2.2347 h   0  0  0  0  0  0  0  0  0  0  0  0
    3.9992    0.8429   -0.9272 h   0  0  0  0  0  0  0  0  0  0  0  0
  1  2  1  0  0  0  0
  2  3  1  0  0  0  0
  3  4  1  0  0  0  0
  4  5  1  0  0  0  0
  1  6  1  0  0  0  0
  5  6  1  0  0  0  0
  1  7  1  0  0  0  0
  5  8  1  0  0  0  0
  7  8  1  0  0  0  0
  6  9  1  0  0  0  0
  1 10  1  0  0  0  0
  8 11  2  0  0  0  0
  2 12  1  0  0  0  0
 12 13  2  0  0  0  0
  2 14  1  0  0  0  0
 10 15  1  0  0  0  0
 12 16  1  0  0  0  0
  3 17  1  0  0  0  0
  3 18  1  0  0  0  0
  4 19  1  0  0  0  0
  4 20  1  0  0  0  0
  5 21  1  0  0  0  0
  6 22  1  0  0  0  0
  7 23  1  0  0  0  0
  7 24  1  0  0  0  0
  9 25  1  0  0  0  0
 10 26  1  0  0  0  0
 10 27  1  0  0  0  0
 11 28  1  0  0  0  0
 11 29  1  0  0  0  0
 13 30  1  0  0  0  0
 13 31  1  0  0  0  0
 15 32  1  0  0  0  0
 16 33  1  0  0  0  0
 16 34  1  0  0  0  0
 16 35  1  0  0  0  0
M  END
