 xtb: 6.7.1 (edcfbbe)
          08092618203D

 35 36  0     0  0            999 V2000
    0.1118   -0.6900   -0.2601 c   0  0  0  0  0  0  0  0  0  0  0  0
    0.5988    0.6247   -0.9313 c   0  0  0  0  0  0  0  0  0  0  0  0
   -0.4898    1.7119   -0.8447 c   0  0  0  0  0  0  0  0  0  0  0  0
   -1.2246    1.7556    0.4930 c   0  0  0  0  0  0  0  0  0  0  0  0
   -1.6824    0.3484    0.8938 c   0  0  0  0  0  0  0  0  0  0  0  0
   -0.4424   -0.5124    1.1664 c   0  0  0  0  0  0  0  0  0  0  0  0
   -1.1824   -1.1408   -0.9690 c   0  0  0  0  0  0  0  0  0  0  0  0
   -2.2854   -0.3773   -0.2820 c   0  0  0  0  0  0  0  0  0  0  0  0
    0.4757   -0.0016    2.1053 o   0  0  0  0  0  0  0  0  0  0  0  0
    1.2096   -1.7622   -0.3430 c   0  0  0  0  0  0  0  0  0  0  0  0
   -3.5565   -0.3492   -0.6392 c   0  0  0  0  0  0  0  0  0  0  0  0
    1.9794    1.1123   -0.5315 c   0  0  0  0  0  0  0  0  0  0  0  0
    3.0299    0.7597   -1.2612 c   0  0  0  0  0  0  0  0  0  0  0  0
    0.6973    0.3644   -1.9928 h   0  0  0  0  0  0  0  0  0  0  0  0
    0.8103   -3.0247    0.1508 o   0  0  0  0  0  0  0  0  0  0  0  0
    2.1506    2.0365    0.6341 c   0  0  0  0  0  0  0  0  0  0  0  0
   -0.0454    2.6848   -1.0602 h   0  0  0  0  0  0  0  0  0  0  0  0
   -1.2283    1.5185   -1.6254 h   0  0  0  0  0  0  0  0  0  0  0  0
   -0.5761    2.1482    1.2768 h   0  0  0  0  0  0  0  0  0  0  0  0
   -2.0913    2.4134    0.4041 h   0  0  0  0  0  0  0  0  0  0  0  0
   -2.3592    0.3996    1.7512 h   0  0  0  0  0  0  0  0  0  0  0  0
   -0.7849   -1.5024    1.5169 h   0  0  0  0  0  0  0  0  0  0  0  0
   -1.1569   -0.9605   -2.0431 h   0  0  0  0  0  0  0  0  0  0  0  0
   -1.3175   -2.2158   -0.8188 h   0  0  0  0  0  0  0  0  0  0  0  0
   -0.0034    0.1733    2.9249 h   0  0  0  0  0  0  0  0  0  0  0  0
    2.1016   -1.4098    0.1863 h   0  0  0  0  0  0  0  0  0  0  0  0
    1.4679   -1.9325   -1.3907 h   0  0  0  0  0  0  0  0  0  0  0  0
   -3.9142   -0.8873   -1.5010 h   0  0  0  0  0  0  0  0  0  0  0  0
   -4.2894    0.2140   -0.0864 h   0  0  0  0  0  0  0  0  0  0  0  0
    4.0253    1.0959   -1.0220 h   0  0  0  0  0  0  0  0  0  0  0  0
    2.9480    0.1131   -2.1191 h   0  0  0  0  0  0  0  0  0  0  0  0
    0.7437   -2.9661    1.1115 h   0  0  0  0  0  0  0  0  0  0  0  0
    1.5784    2.9513    0.4929 h   0  0  0  0  0  0  0  0  0  0  0  0
    1.8087    1.5536    1.5445 h   0  0  0  0  0  0  0  0  0  0  0  0
    3.1984    2.3023    0.7508 h   0  0  0  0  0  0  0  0  0  0  0  0
  1  2  1  0  0  0  0
  2  3  1  0  0  0  0
  3  4  1  0  0  0  0
  4  5  1  0  0  0  0
  1  6  1  0  0  0  0
  5  6  1  0  0  0  0
  1  7  1  0  0  0  0
  5  8  1  0  0  0  0
  7  8  1  0  0  0  0
  6  9  1  0  0  0  0
  1 10  1  0  0  0  0
  8 11  2  0  0  0  0
  2 12  1  0  0  0  0
 12 13  2  0  0  0  0
  2 14  1  0  0  0  0
 10 15  1  0  0  0  0
 12 16  1  0  0  0  0
  3 17  1  0  0  0  0
  3 18  1  0  0  0  0
  4 19  1  0  0  0  0
  4 20  1  0  0  0  0
  5 21  1  0  0  0  0
  6 22  1  0  0  0  0
  7 23  1  0  0  0  0
  7 24  1  0  0  0  0
  9 25  1  0  0  0  0
 10 26  1  0  0  0  0
 10 27  1  0  0  0  0
 11 28  1  0  0  0  0
 11 29  1  0  0  0  0
 13 30  1  0  0  0  0
 13 31  1  0  0  0  0
 15 32  1  0  0  0  0
 16 33  1  0  0  0  0
 16 34  1  0  0  0  0
 16 35  1  0  0  0  0
M  END
