 xtb: 6.7.1 (edcfbbe)
          08092616283D

 35 36  0     0  0            999 V2000
    0.0774   -0.6190    0.1098 c   0  0  0  0  0  0  0  0  0  0  0  0
   -0.9569    0.4047    0.6499 c   0  0  0  0  0  0  0  0  0  0  0  0
   -0.3341    1.8151    0.7392 c   0  0  0  0  0  0  0  0  0  0  0  0
    0.5726    2.2054   -0.4286 c   0  0  0  0  0  0  0  0  0  0  0  0
    1.4911    1.0435   -0.8179 c   0  0  0  0  0  0  0  0  0  0  0  0
    0.6247   -0.1434   -1.2518 c   0  0  0  0  0  0  0  0  0  0  0  0
    1.3399   -0.5836    0.9953 c   0  0  0  0  0  0  0  0  0  0  0  0
    2.1950    0.5076    0.4040 c   0  0  0  0  0  0  0  0  0  0  0  0
    1.3671   -1.1289   -1.9403 o   0  0  0  0  0  0  0  0  0  0  0  0
   -0.5104   -2.0320    0.0150 c   0  0  0  0  0  0  0  0  0  0  0  0
    3.3619    0.9185    0.8668 c   0  0  0  0  0  0  0  0  0  0  0  0
   -2.2946    0.3913   -0.0666 c   0  0  0  0  0  0  0  0  0  0  0  0
   -2.5427    0.9863   -1.2238 c   0  0  0  0  0  0  0  0  0  0  0  0
   -1.1679    0.1063    1.6849 h   0  0  0  0  0  0  0  0  0  0  0  0
   -0.7678   -2.6231    1.2711 o   0  0  0  0  0  0  0  0  0  0  0  0
   -3.4065   -0.2992    0.6758 c   0  0  0  0  0  0  0  0  0  0  0  0
   -1.1380    2.5473    0.8353 h   0  0  0  0  0  0  0  0  0  0  0  0
    0.2621    1.8641    1.6526 h   0  0  0  0  0  0  0  0  0  0  0  0
   -0.0121    2.5013   -1.2998 h   0  0  0  0  0  0  0  0  0  0  0  0
    1.1781    3.0644   -0.1319 h   0  0  0  0  0  0  0  0  0  0  0  0
    2.1845    1.3533   -1.6031 h   0  0  0  0  0  0  0  0  0  0  0  0
   -0.1711    0.1273   -1.9453 h   0  0  0  0  0  0  0  0  0  0  0  0
    1.8550   -1.5472    0.9540 h   0  0  0  0  0  0  0  0  0  0  0  0
    1.1079   -0.3976    2.0442 h   0  0  0  0  0  0  0  0  0  0  0  0
    2.1469   -1.3396   -1.4093 h   0  0  0  0  0  0  0  0  0  0  0  0
    0.2080   -2.6949   -0.4736 h   0  0  0  0  0  0  0  0  0  0  0  0
   -1.4178   -2.0116   -0.6032 h   0  0  0  0  0  0  0  0  0  0  0  0
    3.8015    0.4953    1.7548 h   0  0  0  0  0  0  0  0  0  0  0  0
    3.9220    1.6982    0.3786 h   0  0  0  0  0  0  0  0  0  0  0  0
   -3.5267    0.9558   -1.6631 h   0  0  0  0  0  0  0  0  0  0  0  0
   -1.8055    1.5289   -1.7851 h   0  0  0  0  0  0  0  0  0  0  0  0
   -1.3729   -2.0469    1.7571 h   0  0  0  0  0  0  0  0  0  0  0  0
   -3.2043   -1.3622    0.7996 h   0  0  0  0  0  0  0  0  0  0  0  0
   -3.5232    0.1380    1.6678 h   0  0  0  0  0  0  0  0  0  0  0  0
   -4.3481   -0.1965    0.1422 h   0  0  0  0  0  0  0  0  0  0  0  0
  1  2  1  0  0  0  0
  2  3  1  0  0  0  0
  3  4  1  0  0  0  0
  4  5  1  0  0  0  0
  1  6  1  0  0  0  0
  5  6  1  0  0  0  0
  1  7  1  0  0  0  0
  5  8  1  0  0  0  0
  7  8  1  0  0  0  0
  6  9  1  0  0  0  0
  1 10  1  0  0  0  0
  8 11  2  0  0  0  0
  2 12  1  0  0  0  0
 12 13  2  0  0  0  0
  2 14  1  0  0  0  0
 10 15  1  0  0  0  0
 12 16  1  0  0  0  0
  3 17  1  0  0  0  0
  3 18  1  0  0  0  0
  4 19  1  0  0  0  0
  4 20  1  0  0  0  0
  5 21  1  0  0  0  0
  6 22  1  0  0  0  0
  7 23  1  0  0  0  0
  7 24  1  0  0  0  0
  9 25  1  0  0  0  0
 10 26  1  0  0  0  0
 10 27  1  0  0  0  0
 11 28  1  0  0  0  0
 11 29  1  0  0  0  0
 13 30  1  0  0  0  0
 13 31  1  0  0  0  0
 15 32  1  0  0  0  0
 16 33  1  0  0  0  0
 16 34  1  0  0  0  0
 16 35  1  0  0  0  0
M  END
