 xtb: 6.7.1 (edcfbbe)
          08092615283D

 35 36  0     0  0            999 V2000
    0.0915   -0.6468    0.0750 c   0  0  0  0  0  0  0  0  0  0  0  0
   -0.9452    0.3177    0.7123 c   0  0  0  0  0  0  0  0  0  0  0  0
   -0.3433    1.7245    0.8807 c   0  0  0  0  0  0  0  0  0  0  0  0
    0.4908    2.2038   -0.3078 c   0  0  0  0  0  0  0  0  0  0  0  0
    1.4469    1.0978   -0.7679 c   0  0  0  0  0  0  0  0  0  0  0  0
    0.6129   -0.0883   -1.2583 c   0  0  0  0  0  0  0  0  0  0  0  0
    1.3767   -0.6484    0.9268 c   0  0  0  0  0  0  0  0  0  0  0  0
    2.1771    0.5184    0.4173 c   0  0  0  0  0  0  0  0  0  0  0  0
    1.3961   -1.0751   -1.9131 o   0  0  0  0  0  0  0  0  0  0  0  0
   -0.4775   -2.0572   -0.0799 c   0  0  0  0  0  0  0  0  0  0  0  0
    3.3232    0.9570    0.9055 c   0  0  0  0  0  0  0  0  0  0  0  0
   -2.3121    0.3079    0.0534 c   0  0  0  0  0  0  0  0  0  0  0  0
   -3.2515   -0.5026    0.5231 c   0  0  0  0  0  0  0  0  0  0  0  0
   -1.1107   -0.0865    1.7172 h   0  0  0  0  0  0  0  0  0  0  0  0
   -0.7984   -2.5794    1.1978 o   0  0  0  0  0  0  0  0  0  0  0  0
   -2.6299    1.2429   -1.0769 c   0  0  0  0  0  0  0  0  0  0  0  0
   -1.1441    2.4366    1.0877 h   0  0  0  0  0  0  0  0  0  0  0  0
    0.3051    1.7113    1.7584 h   0  0  0  0  0  0  0  0  0  0  0  0
   -0.1435    2.4933   -1.1460 h   0  0  0  0  0  0  0  0  0  0  0  0
    1.0678    3.0801   -0.0052 h   0  0  0  0  0  0  0  0  0  0  0  0
    2.1264    1.4789   -1.5356 h   0  0  0  0  0  0  0  0  0  0  0  0
   -0.1947    0.2171   -1.9328 h   0  0  0  0  0  0  0  0  0  0  0  0
    1.9264   -1.5750    0.7485 h   0  0  0  0  0  0  0  0  0  0  0  0
    1.1667   -0.5895    1.9936 h   0  0  0  0  0  0  0  0  0  0  0  0
    1.9280   -0.6351   -2.5885 h   0  0  0  0  0  0  0  0  0  0  0  0
    0.2764   -2.6839   -0.5717 h   0  0  0  0  0  0  0  0  0  0  0  0
   -1.3732   -2.0248   -0.7142 h   0  0  0  0  0  0  0  0  0  0  0  0
    3.7847    0.4999    1.7646 h   0  0  0  0  0  0  0  0  0  0  0  0
    3.8451    1.7917    0.4678 h   0  0  0  0  0  0  0  0  0  0  0  0
   -4.2398   -0.5413    0.0941 h   0  0  0  0  0  0  0  0  0  0  0  0
   -3.0647   -1.1723    1.3456 h   0  0  0  0  0  0  0  0  0  0  0  0
   -1.1191   -3.4812    1.0825 h   0  0  0  0  0  0  0  0  0  0  0  0
   -2.4377    2.2752   -0.7930 h   0  0  0  0  0  0  0  0  0  0  0  0
   -2.0366    1.0191   -1.9611 h   0  0  0  0  0  0  0  0  0  0  0  0
   -3.6801    1.1533   -1.3459 h   0  0  0  0  0  0  0  0  0  0  0  0
  1  2  1  0  0  0  0
  2  3  1  0  0  0  0
  3  4  1  0  0  0  0
  4  5  1  0  0  0  0
  1  6  1  0  0  0  0
  5  6  1  0  0  0  0
  1  7  1  0  0  0  0
  5  8  1  0  0  0  0
  7  8  1  0  0  0  0
  6  9  1  0  0  0  0
  1 10  1  0  0  0  0
  8 11  2  0  0  0  0
  2 12  1  0  0  0  0
 12 13  2  0  0  0  0
  2 14  1  0  0  0  0
 10 15  1  0  0  0  0
 12 16  1  0  0  0  0
  3 17  1  0  0  0  0
  3 18  1  0  0  0  0
  4 19  1  0  0  0  0
  4 20  1  0  0  0  0
  5 21  1  0  0  0  0
  6 22  1  0  0  0  0
  7 23  1  0  0  0  0
  7 24  1  0  0  0  0
  9 25  1  0  0  0  0
 10 26  1  0  0  0  0
 10 27  1  0  0  0  0
 11 28  1  0  0  0  0
 11 29  1  0  0  0  0
 13 30  1  0  0  0  0
 13 31  1  0  0  0  0
 15 32  1  0  0  0  0
 16 33  1  0  0  0  0
 16 34  1  0  0  0  0
 16 35  1  0  0  0  0
M  END
