 xtb: 6.7.1 (edcfbbe)
          08092618423D

 35 36  0     0  0            999 V2000
    0.0121   -0.7555   -0.0453 c   0  0  0  0  0  0  0  0  0  0  0  0
    0.6245    0.4794   -0.7679 c   0  0  0  0  0  0  0  0  0  0  0  0
   -0.4269    1.6009   -0.8979 c   0  0  0  0  0  0  0  0  0  0  0  0
   -1.3080    1.8107    0.3349 c   0  0  0  0  0  0  0  0  0  0  0  0
   -1.8088    0.4677    0.8734 c   0  0  0  0  0  0  0  0  0  0  0  0
   -0.6085   -0.3864    1.3181 c   0  0  0  0  0  0  0  0  0  0  0  0
   -1.2470   -1.2046   -0.8117 c   0  0  0  0  0  0  0  0  0  0  0  0
   -2.3646   -0.3600   -0.2550 c   0  0  0  0  0  0  0  0  0  0  0  0
    0.2507    0.1707    2.2747 o   0  0  0  0  0  0  0  0  0  0  0  0
    1.0089   -1.9032    0.1227 c   0  0  0  0  0  0  0  0  0  0  0  0
   -3.6140   -0.3473   -0.6827 c   0  0  0  0  0  0  0  0  0  0  0  0
    1.9548    0.9692   -0.2278 c   0  0  0  0  0  0  0  0  0  0  0  0
    2.1105    1.9928    0.6039 c   0  0  0  0  0  0  0  0  0  0  0  0
    0.8454    0.1280   -1.7833 h   0  0  0  0  0  0  0  0  0  0  0  0
    1.4508   -2.3613   -1.1447 o   0  0  0  0  0  0  0  0  0  0  0  0
    3.1732    0.3098   -0.8156 c   0  0  0  0  0  0  0  0  0  0  0  0
    0.0817    2.5329   -1.1516 h   0  0  0  0  0  0  0  0  0  0  0  0
   -1.0845    1.3545   -1.7336 h   0  0  0  0  0  0  0  0  0  0  0  0
   -0.7778    2.3321    1.1333 h   0  0  0  0  0  0  0  0  0  0  0  0
   -2.1637    2.4288    0.0547 h   0  0  0  0  0  0  0  0  0  0  0  0
   -2.5261    0.6284    1.6806 h   0  0  0  0  0  0  0  0  0  0  0  0
   -0.9881   -1.3008    1.7938 h   0  0  0  0  0  0  0  0  0  0  0  0
   -1.1369   -1.0974   -1.8902 h   0  0  0  0  0  0  0  0  0  0  0  0
   -1.4474   -2.2597   -0.6107 h   0  0  0  0  0  0  0  0  0  0  0  0
    0.7772    0.8600    1.8407 h   0  0  0  0  0  0  0  0  0  0  0  0
    0.5065   -2.7190    0.6600 h   0  0  0  0  0  0  0  0  0  0  0  0
    1.8576   -1.5688    0.7337 h   0  0  0  0  0  0  0  0  0  0  0  0
   -3.9361   -0.9586   -1.5093 h   0  0  0  0  0  0  0  0  0  0  0  0
   -4.3641    0.2745   -0.2241 h   0  0  0  0  0  0  0  0  0  0  0  0
    3.0962    2.3083    0.9061 h   0  0  0  0  0  0  0  0  0  0  0  0
    1.3035    2.5893    0.9916 h   0  0  0  0  0  0  0  0  0  0  0  0
    1.9750   -3.1602   -1.0154 h   0  0  0  0  0  0  0  0  0  0  0  0
    2.9545   -0.6887   -1.1783 h   0  0  0  0  0  0  0  0  0  0  0  0
    3.5140    0.8987   -1.6688 h   0  0  0  0  0  0  0  0  0  0  0  0
    3.9859    0.2678   -0.0937 h   0  0  0  0  0  0  0  0  0  0  0  0
  1  2  1  0  0  0  0
  2  3  1  0  0  0  0
  3  4  1  0  0  0  0
  4  5  1  0  0  0  0
  1  6  1  0  0  0  0
  5  6  1  0  0  0  0
  1  7  1  0  0  0  0
  5  8  1  0  0  0  0
  7  8  1  0  0  0  0
  6  9  1  0  0  0  0
  1 10  1  0  0  0  0
  8 11  2  0  0  0  0
  2 12  1  0  0  0  0
 12 13  2  0  0  0  0
  2 14  1  0  0  0  0
 10 15  1  0  0  0  0
 12 16  1  0  0  0  0
  3 17  1  0  0  0  0
  3 18  1  0  0  0  0
  4 19  1  0  0  0  0
  4 20  1  0  0  0  0
  5 21  1  0  0  0  0
  6 22  1  0  0  0  0
  7 23  1  0  0  0  0
  7 24  1  0  0  0  0
  9 25  1  0  0  0  0
 10 26  1  0  0  0  0
 10 27  1  0  0  0  0
 11 28  1  0  0  0  0
 11 29  1  0  0  0  0
 13 30  1  0  0  0  0
 13 31  1  0  0  0  0
 15 32  1  0  0  0  0
 16 33  1  0  0  0  0
 16 34  1  0  0  0  0
 16 35  1  0  0  0  0
M  END
