 xtb: 6.7.1 (edcfbbe)
          08092615283D

 35 36  0     0  0            999 V2000
    0.1266   -0.5598    0.4387 c   0  0  0  0  0  0  0  0  0  0  0  0
   -0.9421    0.5226    0.7387 c   0  0  0  0  0  0  0  0  0  0  0  0
   -0.3420    1.9343    0.5564 c   0  0  0  0  0  0  0  0  0  0  0  0
    0.5878    2.1104   -0.6469 c   0  0  0  0  0  0  0  0  0  0  0  0
    1.5196    0.9053   -0.8052 c   0  0  0  0  0  0  0  0  0  0  0  0
    0.6590   -0.3474   -0.9940 c   0  0  0  0  0  0  0  0  0  0  0  0
    1.3742   -0.3004    1.3080 c   0  0  0  0  0  0  0  0  0  0  0  0
    2.2263    0.6427    0.4984 c   0  0  0  0  0  0  0  0  0  0  0  0
    1.3786   -1.4525   -1.4962 o   0  0  0  0  0  0  0  0  0  0  0  0
   -0.3989   -1.9900    0.6499 c   0  0  0  0  0  0  0  0  0  0  0  0
    3.3916    1.1453    0.8625 c   0  0  0  0  0  0  0  0  0  0  0  0
   -2.2518    0.3312   -0.0008 c   0  0  0  0  0  0  0  0  0  0  0  0
   -2.5046    0.7922   -1.2162 c   0  0  0  0  0  0  0  0  0  0  0  0
   -1.1810    0.4215    1.8051 h   0  0  0  0  0  0  0  0  0  0  0  0
   -1.2709   -2.4354   -0.3538 o   0  0  0  0  0  0  0  0  0  0  0  0
   -3.3238   -0.3879    0.7654 c   0  0  0  0  0  0  0  0  0  0  0  0
   -1.1598    2.6539    0.4887 h   0  0  0  0  0  0  0  0  0  0  0  0
    0.2295    2.1775    1.4547 h   0  0  0  0  0  0  0  0  0  0  0  0
    0.0206    2.2406   -1.5686 h   0  0  0  0  0  0  0  0  0  0  0  0
    1.1848    3.0134   -0.5001 h   0  0  0  0  0  0  0  0  0  0  0  0
    2.2095    1.0642   -1.6373 h   0  0  0  0  0  0  0  0  0  0  0  0
   -0.1508   -0.1934   -1.7089 h   0  0  0  0  0  0  0  0  0  0  0  0
    1.9168   -1.2322    1.4945 h   0  0  0  0  0  0  0  0  0  0  0  0
    1.1184    0.1154    2.2831 h   0  0  0  0  0  0  0  0  0  0  0  0
    2.1853   -1.5511   -0.9780 h   0  0  0  0  0  0  0  0  0  0  0  0
   -0.9513   -2.0492    1.5915 h   0  0  0  0  0  0  0  0  0  0  0  0
    0.4599   -2.6753    0.7221 h   0  0  0  0  0  0  0  0  0  0  0  0
    3.8319    0.9237    1.8203 h   0  0  0  0  0  0  0  0  0  0  0  0
    3.9492    1.8045    0.2192 h   0  0  0  0  0  0  0  0  0  0  0  0
   -3.4676    0.6390   -1.6741 h   0  0  0  0  0  0  0  0  0  0  0  0
   -1.7944    1.3343   -1.8128 h   0  0  0  0  0  0  0  0  0  0  0  0
   -0.7821   -2.4286   -1.1858 h   0  0  0  0  0  0  0  0  0  0  0  0
   -4.2827   -0.2939    0.2629 h   0  0  0  0  0  0  0  0  0  0  0  0
   -3.0835   -1.4459    0.8374 h   0  0  0  0  0  0  0  0  0  0  0  0
   -3.4157    0.0149    1.7734 h   0  0  0  0  0  0  0  0  0  0  0  0
  1  2  1  0  0  0  0
  2  3  1  0  0  0  0
  3  4  1  0  0  0  0
  4  5  1  0  0  0  0
  1  6  1  0  0  0  0
  5  6  1  0  0  0  0
  1  7  1  0  0  0  0
  5  8  1  0  0  0  0
  7  8  1  0  0  0  0
  6  9  1  0  0  0  0
  1 10  1  0  0  0  0
  8 11  2  0  0  0  0
  2 12  1  0  0  0  0
 12 13  2  0  0  0  0
  2 14  1  0  0  0  0
 10 15  1  0  0  0  0
 12 16  1  0  0  0  0
  3 17  1  0  0  0  0
  3 18  1  0  0  0  0
  4 19  1  0  0  0  0
  4 20  1  0  0  0  0
  5 21  1  0  0  0  0
  6 22  1  0  0  0  0
  7 23  1  0  0  0  0
  7 24  1  0  0  0  0
  9 25  1  0  0  0  0
 10 26  1  0  0  0  0
 10 27  1  0  0  0  0
 11 28  1  0  0  0  0
 11 29  1  0  0  0  0
 13 30  1  0  0  0  0
 13 31  1  0  0  0  0
 15 32  1  0  0  0  0
 16 33  1  0  0  0  0
 16 34  1  0  0  0  0
 16 35  1  0  0  0  0
M  END
