 xtb: 6.7.1 (edcfbbe)
          08092622443D

 50 55  0     0  0            999 V2000
   -0.4310    0.0318   -2.4880 c   0  0  0  0  0  0  0  0  0  0  0  0
    1.0910    0.0402   -2.5891 c   0  0  0  0  0  0  0  0  0  0  0  0
   -2.6075    3.1714    0.5905 c   0  0  0  0  0  0  0  0  0  0  0  0
   -3.7257    2.5904    0.0169 c   0  0  0  0  0  0  0  0  0  0  0  0
   -3.6300    1.3248   -0.5212 c   0  0  0  0  0  0  0  0  0  0  0  0
   -2.4319    0.6114   -0.4700 c   0  0  0  0  0  0  0  0  0  0  0  0
   -1.3125    1.1589    0.1800 c   0  0  0  0  0  0  0  0  0  0  0  0
   -1.4286    2.4515    0.6766 c   0  0  0  0  0  0  0  0  0  0  0  0
   -2.3398   -0.6233   -1.0803 n   0  0  0  0  0  0  0  0  0  0  0  0
   -1.0024   -0.9921   -1.4852 c   0  0  0  0  0  0  0  0  0  0  0  0
   -0.1519   -1.0793   -0.1970 c   0  0  0  0  0  0  0  0  0  0  0  0
   -0.0593    0.3341    0.4386 c   0  0  0  0  0  0  0  0  0  0  0  0
    1.2737   -1.4580   -0.6297 c   0  0  0  0  0  0  0  0  0  0  0  0
    1.7626   -0.1243   -1.2183 c   0  0  0  0  0  0  0  0  0  0  0  0
    1.2557    0.8600   -0.1708 c   0  0  0  0  0  0  0  0  0  0  0  0
    3.2431    0.0813   -1.3877 c   0  0  0  0  0  0  0  0  0  0  0  0
    3.9441    0.9690   -0.6961 c   0  0  0  0  0  0  0  0  0  0  0  0
    3.3832    1.7116    0.4881 c   0  0  0  0  0  0  0  0  0  0  0  0
    2.2557    0.8902    0.9674 n   0  0  0  0  0  0  0  0  0  0  0  0
    1.4205    1.3693    2.0817 c   0  0  0  0  0  0  0  0  0  0  0  0
    0.2403    0.4009    1.9630 c   0  0  0  0  0  0  0  0  0  0  0  0
    2.7718   -0.2997    1.3524 o   0  0  0  0  0  0  0  0  0  0  0  0
    1.1678    1.8793   -0.5480 h   0  0  0  0  0  0  0  0  0  0  0  0
   -0.8062   -2.1149    0.6899 c   0  0  0  0  0  0  0  0  0  0  0  0
   -1.4711   -1.8906    1.6745 o   0  0  0  0  0  0  0  0  0  0  0  0
   -0.5942   -3.3450    0.2242 o   0  0  0  0  0  0  0  0  0  0  0  0
   -1.1837   -4.4210    0.9541 c   0  0  0  0  0  0  0  0  0  0  0  0
   -0.8619   -0.1675   -3.4717 h   0  0  0  0  0  0  0  0  0  0  0  0
   -0.7658    1.0241   -2.1806 h   0  0  0  0  0  0  0  0  0  0  0  0
    1.4316   -0.7824   -3.2205 h   0  0  0  0  0  0  0  0  0  0  0  0
    1.4127    0.9737   -3.0564 h   0  0  0  0  0  0  0  0  0  0  0  0
   -2.6540    4.1756    0.9838 h   0  0  0  0  0  0  0  0  0  0  0  0
   -4.6601    3.1296   -0.0307 h   0  0  0  0  0  0  0  0  0  0  0  0
   -4.4840    0.8684   -1.0016 h   0  0  0  0  0  0  0  0  0  0  0  0
   -0.5823    2.9226    1.1486 h   0  0  0  0  0  0  0  0  0  0  0  0
   -3.0751   -0.8191   -1.7445 h   0  0  0  0  0  0  0  0  0  0  0  0
   -1.0379   -1.9886   -1.9353 h   0  0  0  0  0  0  0  0  0  0  0  0
    1.8862   -1.7242    0.2312 h   0  0  0  0  0  0  0  0  0  0  0  0
    1.2760   -2.2721   -1.3507 h   0  0  0  0  0  0  0  0  0  0  0  0
    3.7127   -0.4917   -2.1735 h   0  0  0  0  0  0  0  0  0  0  0  0
    4.9935    1.1244   -0.8952 h   0  0  0  0  0  0  0  0  0  0  0  0
    3.0595    2.7269    0.2413 h   0  0  0  0  0  0  0  0  0  0  0  0
    4.1292    1.7466    1.2847 h   0  0  0  0  0  0  0  0  0  0  0  0
    1.9704    1.2410    3.0128 h   0  0  0  0  0  0  0  0  0  0  0  0
    1.1473    2.4137    1.9393 h   0  0  0  0  0  0  0  0  0  0  0  0
   -0.6277    0.7121    2.5377 h   0  0  0  0  0  0  0  0  0  0  0  0
    0.5732   -0.5705    2.3260 h   0  0  0  0  0  0  0  0  0  0  0  0
   -0.9716   -5.3194    0.3814 h   0  0  0  0  0  0  0  0  0  0  0  0
   -0.7421   -4.4838    1.9499 h   0  0  0  0  0  0  0  0  0  0  0  0
   -2.2589   -4.2621    1.0527 h   0  0  0  0  0  0  0  0  0  0  0  0
  1  2  1  0  0  0  0
  3  4  4  0  0  0  0
  4  5  4  0  0  0  0
  5  6  4  0  0  0  0
  6  7  4  0  0  0  0
  3  8  4  0  0  0  0
  7  8  4  0  0  0  0
  6  9  1  0  0  0  0
  1 10  1  0  0  0  0
  9 10  1  0  0  0  0
 10 11  1  0  0  0  0
  7 12  1  0  0  0  0
 11 12  1  0  0  0  0
 11 13  1  0  0  0  0
  2 14  1  0  0  0  0
 13 14  1  0  0  0  0
 12 15  1  0  0  0  0
 14 15  1  0  0  0  0
 14 16  1  0  0  0  0
 16 17  2  0  0  0  0
 17 18  1  0  0  0  0
 15 19  1  0  0  0  0
 18 19  1  0  0  0  0
 19 20  1  0  0  0  0
 12 21  1  0  0  0  0
 20 21  1  0  0  0  0
 19 22  1  0  0  0  0
 15 23  1  0  0  0  0
 11 24  1  0  0  0  0
 24 25  2  0  0  0  0
 24 26  1  0  0  0  0
 26 27  1  0  0  0  0
  1 28  1  0  0  0  0
  1 29  1  0  0  0  0
  2 30  1  0  0  0  0
  2 31  1  0  0  0  0
  3 32  1  0  0  0  0
  4 33  1  0  0  0  0
  5 34  1  0  0  0  0
  8 35  1  0  0  0  0
  9 36  1  0  0  0  0
 10 37  1  0  0  0  0
 13 38  1  0  0  0  0
 13 39  1  0  0  0  0
 16 40  1  0  0  0  0
 17 41  1  0  0  0  0
 18 42  1  0  0  0  0
 18 43  1  0  0  0  0
 20 44  1  0  0  0  0
 20 45  1  0  0  0  0
 21 46  1  0  0  0  0
 21 47  1  0  0  0  0
 27 48  1  0  0  0  0
 27 49  1  0  0  0  0
 27 50  1  0  0  0  0
M  END
