 xtb: 6.7.1 (edcfbbe)
          08092615283D

 35 36  0     0  0            999 V2000
   -0.0236   -0.5514    0.2799 c   0  0  0  0  0  0  0  0  0  0  0  0
   -1.0148    0.5738    0.6833 c   0  0  0  0  0  0  0  0  0  0  0  0
   -0.3311    1.9566    0.6209 c   0  0  0  0  0  0  0  0  0  0  0  0
    0.6067    2.1698   -0.5680 c   0  0  0  0  0  0  0  0  0  0  0  0
    1.4759    0.9306   -0.7961 c   0  0  0  0  0  0  0  0  0  0  0  0
    0.5558   -0.2565   -1.1135 c   0  0  0  0  0  0  0  0  0  0  0  0
    1.2275   -0.4784    1.1772 c   0  0  0  0  0  0  0  0  0  0  0  0
    2.1289    0.5162    0.4966 c   0  0  0  0  0  0  0  0  0  0  0  0
    1.2869   -1.3252   -1.6904 o   0  0  0  0  0  0  0  0  0  0  0  0
   -0.7181   -1.9154    0.3771 c   0  0  0  0  0  0  0  0  0  0  0  0
    3.2908    0.9499    0.9502 c   0  0  0  0  0  0  0  0  0  0  0  0
   -2.3442    0.5344   -0.0468 c   0  0  0  0  0  0  0  0  0  0  0  0
   -2.5611    1.0043   -1.2662 c   0  0  0  0  0  0  0  0  0  0  0  0
   -1.2520    0.3949    1.7390 h   0  0  0  0  0  0  0  0  0  0  0  0
    0.2296   -2.9676    0.2359 o   0  0  0  0  0  0  0  0  0  0  0  0
   -3.4900   -0.0058    0.7638 c   0  0  0  0  0  0  0  0  0  0  0  0
   -1.1030    2.7285    0.6199 h   0  0  0  0  0  0  0  0  0  0  0  0
    0.2565    2.0825    1.5322 h   0  0  0  0  0  0  0  0  0  0  0  0
    0.0478    2.3853   -1.4790 h   0  0  0  0  0  0  0  0  0  0  0  0
    1.2460    3.0307   -0.3625 h   0  0  0  0  0  0  0  0  0  0  0  0
    2.1986    1.1023   -1.5957 h   0  0  0  0  0  0  0  0  0  0  0  0
   -0.2261    0.0097   -1.8323 h   0  0  0  0  0  0  0  0  0  0  0  0
    1.7139   -1.4560    1.2111 h   0  0  0  0  0  0  0  0  0  0  0  0
    0.9886   -0.1926    2.2017 h   0  0  0  0  0  0  0  0  0  0  0  0
    1.2369   -2.0810   -1.0852 h   0  0  0  0  0  0  0  0  0  0  0  0
   -1.4789   -1.9869   -0.4093 h   0  0  0  0  0  0  0  0  0  0  0  0
   -1.2034   -2.0037    1.3581 h   0  0  0  0  0  0  0  0  0  0  0  0
    3.6926    0.6174    1.8930 h   0  0  0  0  0  0  0  0  0  0  0  0
    3.8884    1.6526    0.3947 h   0  0  0  0  0  0  0  0  0  0  0  0
   -3.5433    0.9642   -1.7091 h   0  0  0  0  0  0  0  0  0  0  0  0
   -1.7994    1.4520   -1.8766 h   0  0  0  0  0  0  0  0  0  0  0  0
   -0.2442   -3.8047    0.1718 h   0  0  0  0  0  0  0  0  0  0  0  0
   -4.3966   -0.0634    0.1670 h   0  0  0  0  0  0  0  0  0  0  0  0
   -3.2673   -0.9948    1.1575 h   0  0  0  0  0  0  0  0  0  0  0  0
   -3.6779    0.6531    1.6121 h   0  0  0  0  0  0  0  0  0  0  0  0
  1  2  1  0  0  0  0
  2  3  1  0  0  0  0
  3  4  1  0  0  0  0
  4  5  1  0  0  0  0
  1  6  1  0  0  0  0
  5  6  1  0  0  0  0
  1  7  1  0  0  0  0
  5  8  1  0  0  0  0
  7  8  1  0  0  0  0
  6  9  1  0  0  0  0
  1 10  1  0  0  0  0
  8 11  2  0  0  0  0
  2 12  1  0  0  0  0
 12 13  2  0  0  0  0
  2 14  1  0  0  0  0
 10 15  1  0  0  0  0
 12 16  1  0  0  0  0
  3 17  1  0  0  0  0
  3 18  1  0  0  0  0
  4 19  1  0  0  0  0
  4 20  1  0  0  0  0
  5 21  1  0  0  0  0
  6 22  1  0  0  0  0
  7 23  1  0  0  0  0
  7 24  1  0  0  0  0
  9 25  1  0  0  0  0
 10 26  1  0  0  0  0
 10 27  1  0  0  0  0
 11 28  1  0  0  0  0
 11 29  1  0  0  0  0
 13 30  1  0  0  0  0
 13 31  1  0  0  0  0
 15 32  1  0  0  0  0
 16 33  1  0  0  0  0
 16 34  1  0  0  0  0
 16 35  1  0  0  0  0
M  END
