 xtb: 6.7.1 (edcfbbe)
          08092620033D

 50 55  0     0  0            999 V2000
   -0.0493    0.5300    2.5036 c   0  0  0  0  0  0  0  0  0  0  0  0
    1.4294    0.8795    2.3344 c   0  0  0  0  0  0  0  0  0  0  0  0
   -2.1013   -3.4417   -0.1396 c   0  0  0  0  0  0  0  0  0  0  0  0
   -3.1945   -2.9939    0.5837 c   0  0  0  0  0  0  0  0  0  0  0  0
   -3.2159   -1.6991    1.0581 c   0  0  0  0  0  0  0  0  0  0  0  0
   -2.1673   -0.8184    0.7899 c   0  0  0  0  0  0  0  0  0  0  0  0
   -1.0948   -1.2459   -0.0069 c   0  0  0  0  0  0  0  0  0  0  0  0
   -1.0682   -2.5688   -0.4292 c   0  0  0  0  0  0  0  0  0  0  0  0
   -2.2175    0.4677    1.3071 n   0  0  0  0  0  0  0  0  0  0  0  0
   -0.9575    1.1634    1.4328 c   0  0  0  0  0  0  0  0  0  0  0  0
   -0.3202    1.1490    0.0266 c   0  0  0  0  0  0  0  0  0  0  0  0
    0.0208   -0.2960   -0.3932 c   0  0  0  0  0  0  0  0  0  0  0  0
    1.0339    1.8389    0.0956 c   0  0  0  0  0  0  0  0  0  0  0  0
    1.8552    0.7846    0.8580 c   0  0  0  0  0  0  0  0  0  0  0  0
    1.3815   -0.5808    0.3081 c   0  0  0  0  0  0  0  0  0  0  0  0
    3.3192    1.0435    0.7109 c   0  0  0  0  0  0  0  0  0  0  0  0
    4.1413    0.1972    0.1175 c   0  0  0  0  0  0  0  0  0  0  0  0
    3.6944   -1.1238   -0.4058 c   0  0  0  0  0  0  0  0  0  0  0  0
    2.2499   -1.2190   -0.7263 n   0  0  0  0  0  0  0  0  0  0  0  0
    1.8983   -0.5051   -1.9721 c   0  0  0  0  0  0  0  0  0  0  0  0
    0.3808   -0.3776   -1.8999 c   0  0  0  0  0  0  0  0  0  0  0  0
    1.9484   -2.5309   -0.8436 o   0  0  0  0  0  0  0  0  0  0  0  0
    1.3037   -1.3327    1.0941 h   0  0  0  0  0  0  0  0  0  0  0  0
   -1.3297    1.8382   -0.8721 c   0  0  0  0  0  0  0  0  0  0  0  0
   -2.0477    1.3100   -1.6872 o   0  0  0  0  0  0  0  0  0  0  0  0
   -1.3561    3.1485   -0.6257 o   0  0  0  0  0  0  0  0  0  0  0  0
   -2.3095    3.9222   -1.3550 c   0  0  0  0  0  0  0  0  0  0  0  0
   -0.3903    0.8538    3.4893 h   0  0  0  0  0  0  0  0  0  0  0  0
   -0.1815   -0.5525    2.4555 h   0  0  0  0  0  0  0  0  0  0  0  0
    1.6175    1.8949    2.6873 h   0  0  0  0  0  0  0  0  0  0  0  0
    2.0311    0.1983    2.9396 h   0  0  0  0  0  0  0  0  0  0  0  0
   -2.0513   -4.4652   -0.4794 h   0  0  0  0  0  0  0  0  0  0  0  0
   -4.0172   -3.6599    0.8003 h   0  0  0  0  0  0  0  0  0  0  0  0
   -4.0483   -1.3502    1.6538 h   0  0  0  0  0  0  0  0  0  0  0  0
   -0.1940   -2.9287   -0.9532 h   0  0  0  0  0  0  0  0  0  0  0  0
   -2.8497    0.5698    2.0888 h   0  0  0  0  0  0  0  0  0  0  0  0
   -1.1690    2.2059    1.6963 h   0  0  0  0  0  0  0  0  0  0  0  0
    0.9867    2.7856    0.6303 h   0  0  0  0  0  0  0  0  0  0  0  0
    1.4300    2.0277   -0.9008 h   0  0  0  0  0  0  0  0  0  0  0  0
    3.6686    1.9893    1.0973 h   0  0  0  0  0  0  0  0  0  0  0  0
    5.1960    0.4055    0.0179 h   0  0  0  0  0  0  0  0  0  0  0  0
    4.2324   -1.4062   -1.3132 h   0  0  0  0  0  0  0  0  0  0  0  0
    3.8800   -1.9112    0.3337 h   0  0  0  0  0  0  0  0  0  0  0  0
    2.4074    0.4586   -1.9856 h   0  0  0  0  0  0  0  0  0  0  0  0
    2.2237   -1.1145   -2.8148 h   0  0  0  0  0  0  0  0  0  0  0  0
   -0.0864   -1.2581   -2.3361 h   0  0  0  0  0  0  0  0  0  0  0  0
    0.0308    0.4906   -2.4518 h   0  0  0  0  0  0  0  0  0  0  0  0
   -3.3137    3.5274   -1.1938 h   0  0  0  0  0  0  0  0  0  0  0  0
   -2.2227    4.9359   -0.9741 h   0  0  0  0  0  0  0  0  0  0  0  0
   -2.0842    3.8878   -2.4221 h   0  0  0  0  0  0  0  0  0  0  0  0
  1  2  1  0  0  0  0
  3  4  4  0  0  0  0
  4  5  4  0  0  0  0
  5  6  4  0  0  0  0
  6  7  4  0  0  0  0
  3  8  4  0  0  0  0
  7  8  4  0  0  0  0
  6  9  1  0  0  0  0
  1 10  1  0  0  0  0
  9 10  1  0  0  0  0
 10 11  1  0  0  0  0
  7 12  1  0  0  0  0
 11 12  1  0  0  0  0
 11 13  1  0  0  0  0
  2 14  1  0  0  0  0
 13 14  1  0  0  0  0
 12 15  1  0  0  0  0
 14 15  1  0  0  0  0
 14 16  1  0  0  0  0
 16 17  2  0  0  0  0
 17 18  1  0  0  0  0
 15 19  1  0  0  0  0
 18 19  1  0  0  0  0
 19 20  1  0  0  0  0
 12 21  1  0  0  0  0
 20 21  1  0  0  0  0
 19 22  1  0  0  0  0
 15 23  1  0  0  0  0
 11 24  1  0  0  0  0
 24 25  2  0  0  0  0
 24 26  1  0  0  0  0
 26 27  1  0  0  0  0
  1 28  1  0  0  0  0
  1 29  1  0  0  0  0
  2 30  1  0  0  0  0
  2 31  1  0  0  0  0
  3 32  1  0  0  0  0
  4 33  1  0  0  0  0
  5 34  1  0  0  0  0
  8 35  1  0  0  0  0
  9 36  1  0  0  0  0
 10 37  1  0  0  0  0
 13 38  1  0  0  0  0
 13 39  1  0  0  0  0
 16 40  1  0  0  0  0
 17 41  1  0  0  0  0
 18 42  1  0  0  0  0
 18 43  1  0  0  0  0
 20 44  1  0  0  0  0
 20 45  1  0  0  0  0
 21 46  1  0  0  0  0
 21 47  1  0  0  0  0
 27 48  1  0  0  0  0
 27 49  1  0  0  0  0
 27 50  1  0  0  0  0
M  END
