 xtb: 6.7.1 (edcfbbe)
          08092615283D

 35 36  0     0  0            999 V2000
    0.0869   -0.6286    0.1059 c   0  0  0  0  0  0  0  0  0  0  0  0
   -0.9415    0.3995    0.6526 c   0  0  0  0  0  0  0  0  0  0  0  0
   -0.3171    1.8097    0.7364 c   0  0  0  0  0  0  0  0  0  0  0  0
    0.5824    2.2006   -0.4371 c   0  0  0  0  0  0  0  0  0  0  0  0
    1.4963    1.0352   -0.8240 c   0  0  0  0  0  0  0  0  0  0  0  0
    0.6233   -0.1441   -1.2574 c   0  0  0  0  0  0  0  0  0  0  0  0
    1.3587   -0.6037    0.9751 c   0  0  0  0  0  0  0  0  0  0  0  0
    2.1973    0.5052    0.3999 c   0  0  0  0  0  0  0  0  0  0  0  0
    1.4457   -1.0900   -1.9198 o   0  0  0  0  0  0  0  0  0  0  0  0
   -0.5076   -2.0405    0.0259 c   0  0  0  0  0  0  0  0  0  0  0  0
    3.3457    0.9433    0.8821 c   0  0  0  0  0  0  0  0  0  0  0  0
   -2.2860    0.3883   -0.0529 c   0  0  0  0  0  0  0  0  0  0  0  0
   -2.5463    0.9978   -1.2002 c   0  0  0  0  0  0  0  0  0  0  0  0
   -1.1434    0.1051    1.6904 h   0  0  0  0  0  0  0  0  0  0  0  0
   -0.8296   -2.5959    1.2826 o   0  0  0  0  0  0  0  0  0  0  0  0
   -3.3922   -0.3155    0.6863 c   0  0  0  0  0  0  0  0  0  0  0  0
   -1.1199    2.5422    0.8408 h   0  0  0  0  0  0  0  0  0  0  0  0
    0.2878    1.8550    1.6440 h   0  0  0  0  0  0  0  0  0  0  0  0
   -0.0053    2.4992   -1.3055 h   0  0  0  0  0  0  0  0  0  0  0  0
    1.1920    3.0569   -0.1426 h   0  0  0  0  0  0  0  0  0  0  0  0
    2.1932    1.3277   -1.6110 h   0  0  0  0  0  0  0  0  0  0  0  0
   -0.1864    0.1598   -1.9279 h   0  0  0  0  0  0  0  0  0  0  0  0
    1.8884   -1.5537    0.8738 h   0  0  0  0  0  0  0  0  0  0  0  0
    1.1446   -0.4595    2.0340 h   0  0  0  0  0  0  0  0  0  0  0  0
    0.8901   -1.7859   -2.2886 h   0  0  0  0  0  0  0  0  0  0  0  0
    0.2335   -2.7267   -0.3931 h   0  0  0  0  0  0  0  0  0  0  0  0
   -1.3905   -2.0351   -0.6309 h   0  0  0  0  0  0  0  0  0  0  0  0
    3.7830    0.5254    1.7735 h   0  0  0  0  0  0  0  0  0  0  0  0
    3.8973    1.7338    0.4019 h   0  0  0  0  0  0  0  0  0  0  0  0
   -3.5342    0.9702   -1.6312 h   0  0  0  0  0  0  0  0  0  0  0  0
   -1.8165    1.5536   -1.7586 h   0  0  0  0  0  0  0  0  0  0  0  0
   -1.4096   -1.9787    1.7484 h   0  0  0  0  0  0  0  0  0  0  0  0
   -3.4852    0.0867    1.6951 h   0  0  0  0  0  0  0  0  0  0  0  0
   -4.3422   -0.1813    0.1747 h   0  0  0  0  0  0  0  0  0  0  0  0
   -3.2040   -1.3853    0.7672 h   0  0  0  0  0  0  0  0  0  0  0  0
  1  2  1  0  0  0  0
  2  3  1  0  0  0  0
  3  4  1  0  0  0  0
  4  5  1  0  0  0  0
  1  6  1  0  0  0  0
  5  6  1  0  0  0  0
  1  7  1  0  0  0  0
  5  8  1  0  0  0  0
  7  8  1  0  0  0  0
  6  9  1  0  0  0  0
  1 10  1  0  0  0  0
  8 11  2  0  0  0  0
  2 12  1  0  0  0  0
 12 13  2  0  0  0  0
  2 14  1  0  0  0  0
 10 15  1  0  0  0  0
 12 16  1  0  0  0  0
  3 17  1  0  0  0  0
  3 18  1  0  0  0  0
  4 19  1  0  0  0  0
  4 20  1  0  0  0  0
  5 21  1  0  0  0  0
  6 22  1  0  0  0  0
  7 23  1  0  0  0  0
  7 24  1  0  0  0  0
  9 25  1  0  0  0  0
 10 26  1  0  0  0  0
 10 27  1  0  0  0  0
 11 28  1  0  0  0  0
 11 29  1  0  0  0  0
 13 30  1  0  0  0  0
 13 31  1  0  0  0  0
 15 32  1  0  0  0  0
 16 33  1  0  0  0  0
 16 34  1  0  0  0  0
 16 35  1  0  0  0  0
M  END
