 xtb: 6.7.1 (edcfbbe)
          08092615283D

 35 36  0     0  0            999 V2000
    0.0893   -0.6509    0.0951 c   0  0  0  0  0  0  0  0  0  0  0  0
   -0.9603    0.3128    0.7161 c   0  0  0  0  0  0  0  0  0  0  0  0
   -0.3582    1.7180    0.8981 c   0  0  0  0  0  0  0  0  0  0  0  0
    0.4771    2.2073   -0.2858 c   0  0  0  0  0  0  0  0  0  0  0  0
    1.4290    1.1057   -0.7641 c   0  0  0  0  0  0  0  0  0  0  0  0
    0.5999   -0.0887   -1.2473 c   0  0  0  0  0  0  0  0  0  0  0  0
    1.3725   -0.6261    0.9552 c   0  0  0  0  0  0  0  0  0  0  0  0
    2.1792    0.5262    0.4085 c   0  0  0  0  0  0  0  0  0  0  0  0
    1.3694   -1.0114   -1.9937 o   0  0  0  0  0  0  0  0  0  0  0  0
   -0.4665   -2.0725   -0.0505 c   0  0  0  0  0  0  0  0  0  0  0  0
    3.3441    0.9457    0.8687 c   0  0  0  0  0  0  0  0  0  0  0  0
   -2.3113    0.3046    0.0225 c   0  0  0  0  0  0  0  0  0  0  0  0
   -3.2420   -0.5491    0.4289 c   0  0  0  0  0  0  0  0  0  0  0  0
   -1.1569   -0.0863    1.7189 h   0  0  0  0  0  0  0  0  0  0  0  0
   -0.8263   -2.6624    1.1818 o   0  0  0  0  0  0  0  0  0  0  0  0
   -2.6238    1.2873   -1.0679 c   0  0  0  0  0  0  0  0  0  0  0  0
   -1.1597    2.4277    1.1084 h   0  0  0  0  0  0  0  0  0  0  0  0
    0.2866    1.7026    1.7791 h   0  0  0  0  0  0  0  0  0  0  0  0
   -0.1566    2.5085   -1.1193 h   0  0  0  0  0  0  0  0  0  0  0  0
    1.0575    3.0783    0.0258 h   0  0  0  0  0  0  0  0  0  0  0  0
    2.0920    1.4869   -1.5443 h   0  0  0  0  0  0  0  0  0  0  0  0
   -0.2088    0.1881   -1.9217 h   0  0  0  0  0  0  0  0  0  0  0  0
    1.9303   -1.5609    0.8384 h   0  0  0  0  0  0  0  0  0  0  0  0
    1.1614   -0.5003    2.0178 h   0  0  0  0  0  0  0  0  0  0  0  0
    2.1815   -1.1915   -1.5015 h   0  0  0  0  0  0  0  0  0  0  0  0
    0.2722   -2.6986   -0.5694 h   0  0  0  0  0  0  0  0  0  0  0  0
   -1.3793   -2.0589   -0.6490 h   0  0  0  0  0  0  0  0  0  0  0  0
    3.8177    0.4878    1.7214 h   0  0  0  0  0  0  0  0  0  0  0  0
    3.8682    1.7696    0.4147 h   0  0  0  0  0  0  0  0  0  0  0  0
   -4.2173   -0.5873   -0.0283 h   0  0  0  0  0  0  0  0  0  0  0  0
   -3.0621   -1.2615    1.2164 h   0  0  0  0  0  0  0  0  0  0  0  0
   -0.0409   -2.6896    1.7436 h   0  0  0  0  0  0  0  0  0  0  0  0
   -2.4723    2.3095   -0.7278 h   0  0  0  0  0  0  0  0  0  0  0  0
   -2.0005    1.1267   -1.9450 h   0  0  0  0  0  0  0  0  0  0  0  0
   -3.6629    1.1807   -1.3712 h   0  0  0  0  0  0  0  0  0  0  0  0
  1  2  1  0  0  0  0
  2  3  1  0  0  0  0
  3  4  1  0  0  0  0
  4  5  1  0  0  0  0
  1  6  1  0  0  0  0
  5  6  1  0  0  0  0
  1  7  1  0  0  0  0
  5  8  1  0  0  0  0
  7  8  1  0  0  0  0
  6  9  1  0  0  0  0
  1 10  1  0  0  0  0
  8 11  2  0  0  0  0
  2 12  1  0  0  0  0
 12 13  2  0  0  0  0
  2 14  1  0  0  0  0
 10 15  1  0  0  0  0
 12 16  1  0  0  0  0
  3 17  1  0  0  0  0
  3 18  1  0  0  0  0
  4 19  1  0  0  0  0
  4 20  1  0  0  0  0
  5 21  1  0  0  0  0
  6 22  1  0  0  0  0
  7 23  1  0  0  0  0
  7 24  1  0  0  0  0
  9 25  1  0  0  0  0
 10 26  1  0  0  0  0
 10 27  1  0  0  0  0
 11 28  1  0  0  0  0
 11 29  1  0  0  0  0
 13 30  1  0  0  0  0
 13 31  1  0  0  0  0
 15 32  1  0  0  0  0
 16 33  1  0  0  0  0
 16 34  1  0  0  0  0
 16 35  1  0  0  0  0
M  END
