 xtb: 6.7.1 (edcfbbe)
          08092617483D

 35 36  0     0  0            999 V2000
    0.0459   -0.7696   -0.0372 c   0  0  0  0  0  0  0  0  0  0  0  0
    0.6448    0.4375   -0.8176 c   0  0  0  0  0  0  0  0  0  0  0  0
   -0.4132    1.5462   -0.9726 c   0  0  0  0  0  0  0  0  0  0  0  0
   -1.2502    1.7995    0.2796 c   0  0  0  0  0  0  0  0  0  0  0  0
   -1.7707    0.4764    0.8508 c   0  0  0  0  0  0  0  0  0  0  0  0
   -0.5815   -0.3683    1.3161 c   0  0  0  0  0  0  0  0  0  0  0  0
   -1.2192   -1.2530   -0.7755 c   0  0  0  0  0  0  0  0  0  0  0  0
   -2.3318   -0.3806   -0.2526 c   0  0  0  0  0  0  0  0  0  0  0  0
    0.2319    0.3014    2.2423 o   0  0  0  0  0  0  0  0  0  0  0  0
    1.0581   -1.9117    0.1334 c   0  0  0  0  0  0  0  0  0  0  0  0
   -3.5764   -0.3626   -0.6919 c   0  0  0  0  0  0  0  0  0  0  0  0
    1.9879    0.9417   -0.3211 c   0  0  0  0  0  0  0  0  0  0  0  0
    3.1106    0.4101   -0.7884 c   0  0  0  0  0  0  0  0  0  0  0  0
    0.8387    0.0554   -1.8302 h   0  0  0  0  0  0  0  0  0  0  0  0
    1.3497   -2.5930   -1.0601 o   0  0  0  0  0  0  0  0  0  0  0  0
    2.0553    2.0874    0.6417 c   0  0  0  0  0  0  0  0  0  0  0  0
    0.0747    2.4692   -1.2899 h   0  0  0  0  0  0  0  0  0  0  0  0
   -1.0945    1.2560   -1.7755 h   0  0  0  0  0  0  0  0  0  0  0  0
   -0.6694    2.3011    1.0513 h   0  0  0  0  0  0  0  0  0  0  0  0
   -2.0954    2.4388    0.0167 h   0  0  0  0  0  0  0  0  0  0  0  0
   -2.4837    0.6679    1.6537 h   0  0  0  0  0  0  0  0  0  0  0  0
   -0.9714   -1.2894    1.7848 h   0  0  0  0  0  0  0  0  0  0  0  0
   -1.1229   -1.1968   -1.8597 h   0  0  0  0  0  0  0  0  0  0  0  0
   -1.4125   -2.2992   -0.5250 h   0  0  0  0  0  0  0  0  0  0  0  0
    0.9534   -0.2825    2.4962 h   0  0  0  0  0  0  0  0  0  0  0  0
    0.6353   -2.6736    0.7959 h   0  0  0  0  0  0  0  0  0  0  0  0
    1.9821   -1.5281    0.5921 h   0  0  0  0  0  0  0  0  0  0  0  0
   -3.9014   -0.9946   -1.5012 h   0  0  0  0  0  0  0  0  0  0  0  0
   -4.3201    0.2842   -0.2588 h   0  0  0  0  0  0  0  0  0  0  0  0
    4.0773    0.7530   -0.4595 h   0  0  0  0  0  0  0  0  0  0  0  0
    3.1302   -0.3805   -1.5216 h   0  0  0  0  0  0  0  0  0  0  0  0
    1.7469   -1.9684   -1.6771 h   0  0  0  0  0  0  0  0  0  0  0  0
    1.4573    1.8897    1.5256 h   0  0  0  0  0  0  0  0  0  0  0  0
    3.0854    2.2635    0.9425 h   0  0  0  0  0  0  0  0  0  0  0  0
    1.6798    2.9968    0.1749 h   0  0  0  0  0  0  0  0  0  0  0  0
  1  2  1  0  0  0  0
  2  3  1  0  0  0  0
  3  4  1  0  0  0  0
  4  5  1  0  0  0  0
  1  6  1  0  0  0  0
  5  6  1  0  0  0  0
  1  7  1  0  0  0  0
  5  8  1  0  0  0  0
  7  8  1  0  0  0  0
  6  9  1  0  0  0  0
  1 10  1  0  0  0  0
  8 11  2  0  0  0  0
  2 12  1  0  0  0  0
 12 13  2  0  0  0  0
  2 14  1  0  0  0  0
 10 15  1  0  0  0  0
 12 16  1  0  0  0  0
  3 17  1  0  0  0  0
  3 18  1  0  0  0  0
  4 19  1  0  0  0  0
  4 20  1  0  0  0  0
  5 21  1  0  0  0  0
  6 22  1  0  0  0  0
  7 23  1  0  0  0  0
  7 24  1  0  0  0  0
  9 25  1  0  0  0  0
 10 26  1  0  0  0  0
 10 27  1  0  0  0  0
 11 28  1  0  0  0  0
 11 29  1  0  0  0  0
 13 30  1  0  0  0  0
 13 31  1  0  0  0  0
 15 32  1  0  0  0  0
 16 33  1  0  0  0  0
 16 34  1  0  0  0  0
 16 35  1  0  0  0  0
M  END
