 xtb: 6.7.1 (edcfbbe)
          08092621573D

 50 55  0     0  0            999 V2000
   -0.4388   -0.5634   -2.7182 c   0  0  0  0  0  0  0  0  0  0  0  0
    0.6924    0.4359   -2.4619 c   0  0  0  0  0  0  0  0  0  0  0  0
   -2.4520    3.3094    0.5561 c   0  0  0  0  0  0  0  0  0  0  0  0
   -3.5281    2.8692   -0.1956 c   0  0  0  0  0  0  0  0  0  0  0  0
   -3.4902    1.6148   -0.7628 c   0  0  0  0  0  0  0  0  0  0  0  0
   -2.3869    0.7771   -0.5832 c   0  0  0  0  0  0  0  0  0  0  0  0
   -1.3100    1.1975    0.2053 c   0  0  0  0  0  0  0  0  0  0  0  0
   -1.3679    2.4734    0.7522 c   0  0  0  0  0  0  0  0  0  0  0  0
   -2.3862   -0.4714   -1.1500 n   0  0  0  0  0  0  0  0  0  0  0  0
   -1.1416   -1.1187   -1.4499 c   0  0  0  0  0  0  0  0  0  0  0  0
   -0.2071   -1.0995   -0.2157 c   0  0  0  0  0  0  0  0  0  0  0  0
   -0.1277    0.2935    0.4884 c   0  0  0  0  0  0  0  0  0  0  0  0
    1.2042   -1.3637   -0.7674 c   0  0  0  0  0  0  0  0  0  0  0  0
    1.5846    0.0423   -1.2625 c   0  0  0  0  0  0  0  0  0  0  0  0
    1.1850    0.8650   -0.0559 c   0  0  0  0  0  0  0  0  0  0  0  0
    3.0400    0.2984   -1.5232 c   0  0  0  0  0  0  0  0  0  0  0  0
    3.8017    1.0236   -0.7145 c   0  0  0  0  0  0  0  0  0  0  0  0
    3.3460    1.5724    0.6132 c   0  0  0  0  0  0  0  0  0  0  0  0
    2.2111    0.7289    1.0502 n   0  0  0  0  0  0  0  0  0  0  0  0
    1.3952    1.1483    2.2130 c   0  0  0  0  0  0  0  0  0  0  0  0
    0.1604    0.2594    2.0176 c   0  0  0  0  0  0  0  0  0  0  0  0
    2.6904   -0.4814    1.3129 o   0  0  0  0  0  0  0  0  0  0  0  0
    1.1135    1.9322   -0.2780 h   0  0  0  0  0  0  0  0  0  0  0  0
   -0.7368   -2.1812    0.7069 c   0  0  0  0  0  0  0  0  0  0  0  0
   -1.5979   -2.0316    1.5335 o   0  0  0  0  0  0  0  0  0  0  0  0
   -0.1754   -3.3638    0.4368 o   0  0  0  0  0  0  0  0  0  0  0  0
   -0.6183   -4.4594    1.2248 c   0  0  0  0  0  0  0  0  0  0  0  0
   -0.0388   -1.4066   -3.2830 h   0  0  0  0  0  0  0  0  0  0  0  0
   -1.1940   -0.0872   -3.3483 h   0  0  0  0  0  0  0  0  0  0  0  0
    1.2999    0.5047   -3.3671 h   0  0  0  0  0  0  0  0  0  0  0  0
    0.2693    1.4267   -2.2820 h   0  0  0  0  0  0  0  0  0  0  0  0
   -2.4586    4.2950    0.9963 h   0  0  0  0  0  0  0  0  0  0  0  0
   -4.3874    3.5057   -0.3458 h   0  0  0  0  0  0  0  0  0  0  0  0
   -4.3193    1.2594   -1.3590 h   0  0  0  0  0  0  0  0  0  0  0  0
   -0.5521    2.8363    1.3574 h   0  0  0  0  0  0  0  0  0  0  0  0
   -3.1402   -0.6528   -1.7956 h   0  0  0  0  0  0  0  0  0  0  0  0
   -1.3814   -2.1712   -1.6545 h   0  0  0  0  0  0  0  0  0  0  0  0
    1.8889   -1.6344    0.0392 h   0  0  0  0  0  0  0  0  0  0  0  0
    1.2178   -2.1274   -1.5391 h   0  0  0  0  0  0  0  0  0  0  0  0
    3.4530   -0.1198   -2.4297 h   0  0  0  0  0  0  0  0  0  0  0  0
    4.8401    1.2014   -0.9523 h   0  0  0  0  0  0  0  0  0  0  0  0
    3.0644    2.6296    0.5494 h   0  0  0  0  0  0  0  0  0  0  0  0
    4.1430    1.4506    1.3498 h   0  0  0  0  0  0  0  0  0  0  0  0
    1.9392    0.9049    3.1244 h   0  0  0  0  0  0  0  0  0  0  0  0
    1.1770    2.2168    2.1762 h   0  0  0  0  0  0  0  0  0  0  0  0
   -0.6961    0.5876    2.6007 h   0  0  0  0  0  0  0  0  0  0  0  0
    0.4370   -0.7469    2.3256 h   0  0  0  0  0  0  0  0  0  0  0  0
   -0.1521   -5.3460    0.8030 h   0  0  0  0  0  0  0  0  0  0  0  0
   -0.3099   -4.3250    2.2633 h   0  0  0  0  0  0  0  0  0  0  0  0
   -1.7070   -4.5380    1.1891 h   0  0  0  0  0  0  0  0  0  0  0  0
  1  2  1  0  0  0  0
  3  4  4  0  0  0  0
  4  5  4  0  0  0  0
  5  6  4  0  0  0  0
  6  7  4  0  0  0  0
  3  8  4  0  0  0  0
  7  8  4  0  0  0  0
  6  9  1  0  0  0  0
  1 10  1  0  0  0  0
  9 10  1  0  0  0  0
 10 11  1  0  0  0  0
  7 12  1  0  0  0  0
 11 12  1  0  0  0  0
 11 13  1  0  0  0  0
  2 14  1  0  0  0  0
 13 14  1  0  0  0  0
 12 15  1  0  0  0  0
 14 15  1  0  0  0  0
 14 16  1  0  0  0  0
 16 17  2  0  0  0  0
 17 18  1  0  0  0  0
 15 19  1  0  0  0  0
 18 19  1  0  0  0  0
 19 20  1  0  0  0  0
 12 21  1  0  0  0  0
 20 21  1  0  0  0  0
 19 22  1  0  0  0  0
 15 23  1  0  0  0  0
 11 24  1  0  0  0  0
 24 25  2  0  0  0  0
 24 26  1  0  0  0  0
 26 27  1  0  0  0  0
  1 28  1  0  0  0  0
  1 29  1  0  0  0  0
  2 30  1  0  0  0  0
  2 31  1  0  0  0  0
  3 32  1  0  0  0  0
  4 33  1  0  0  0  0
  5 34  1  0  0  0  0
  8 35  1  0  0  0  0
  9 36  1  0  0  0  0
 10 37  1  0  0  0  0
 13 38  1  0  0  0  0
 13 39  1  0  0  0  0
 16 40  1  0  0  0  0
 17 41  1  0  0  0  0
 18 42  1  0  0  0  0
 18 43  1  0  0  0  0
 20 44  1  0  0  0  0
 20 45  1  0  0  0  0
 21 46  1  0  0  0  0
 21 47  1  0  0  0  0
 27 48  1  0  0  0  0
 27 49  1  0  0  0  0
 27 50  1  0  0  0  0
M  END
