 xtb: 6.7.1 (edcfbbe)
          08092615283D

 35 36  0     0  0            999 V2000
   -0.0230   -0.5673    0.3043 c   0  0  0  0  0  0  0  0  0  0  0  0
   -0.9795    0.5810    0.7228 c   0  0  0  0  0  0  0  0  0  0  0  0
   -0.3279    1.9691    0.5430 c   0  0  0  0  0  0  0  0  0  0  0  0
    0.5686    2.1164   -0.6869 c   0  0  0  0  0  0  0  0  0  0  0  0
    1.4608    0.8834   -0.8375 c   0  0  0  0  0  0  0  0  0  0  0  0
    0.5668   -0.3310   -1.1008 c   0  0  0  0  0  0  0  0  0  0  0  0
    1.2483   -0.4873    1.1716 c   0  0  0  0  0  0  0  0  0  0  0  0
    2.1042    0.5447    0.4823 c   0  0  0  0  0  0  0  0  0  0  0  0
    1.3647   -1.3941   -1.5641 o   0  0  0  0  0  0  0  0  0  0  0  0
   -0.7781   -1.8999    0.4414 c   0  0  0  0  0  0  0  0  0  0  0  0
    3.2227    1.0624    0.9536 c   0  0  0  0  0  0  0  0  0  0  0  0
   -2.3749    0.5088    0.1361 c   0  0  0  0  0  0  0  0  0  0  0  0
   -3.3934    0.1729    0.9159 c   0  0  0  0  0  0  0  0  0  0  0  0
   -1.1268    0.4504    1.8028 h   0  0  0  0  0  0  0  0  0  0  0  0
   -0.0222   -3.0513    0.1339 o   0  0  0  0  0  0  0  0  0  0  0  0
   -2.6198    0.8623   -1.3000 c   0  0  0  0  0  0  0  0  0  0  0  0
   -1.1138    2.7273    0.5270 h   0  0  0  0  0  0  0  0  0  0  0  0
    0.2887    2.1645    1.4226 h   0  0  0  0  0  0  0  0  0  0  0  0
   -0.0183    2.2415   -1.5982 h   0  0  0  0  0  0  0  0  0  0  0  0
    1.1870    3.0078   -0.5654 h   0  0  0  0  0  0  0  0  0  0  0  0
    2.1920    1.0205   -1.6347 h   0  0  0  0  0  0  0  0  0  0  0  0
   -0.2076   -0.1124   -1.8462 h   0  0  0  0  0  0  0  0  0  0  0  0
    1.7840   -1.4410    1.1594 h   0  0  0  0  0  0  0  0  0  0  0  0
    1.0380   -0.2330    2.2114 h   0  0  0  0  0  0  0  0  0  0  0  0
    0.9064   -2.2238   -1.3602 h   0  0  0  0  0  0  0  0  0  0  0  0
   -1.6160   -1.9161   -0.2599 h   0  0  0  0  0  0  0  0  0  0  0  0
   -1.1888   -1.9765    1.4576 h   0  0  0  0  0  0  0  0  0  0  0  0
    3.6190    0.7826    1.9155 h   0  0  0  0  0  0  0  0  0  0  0  0
    3.7904    1.7852    0.3934 h   0  0  0  0  0  0  0  0  0  0  0  0
   -4.4039    0.1327    0.5453 h   0  0  0  0  0  0  0  0  0  0  0  0
   -3.2661   -0.0804    1.9550 h   0  0  0  0  0  0  0  0  0  0  0  0
    0.6838   -3.1464    0.7835 h   0  0  0  0  0  0  0  0  0  0  0  0
   -2.1291    1.7948   -1.5652 h   0  0  0  0  0  0  0  0  0  0  0  0
   -2.2490    0.0821   -1.9632 h   0  0  0  0  0  0  0  0  0  0  0  0
   -3.6871    0.9713   -1.4791 h   0  0  0  0  0  0  0  0  0  0  0  0
  1  2  1  0  0  0  0
  2  3  1  0  0  0  0
  3  4  1  0  0  0  0
  4  5  1  0  0  0  0
  1  6  1  0  0  0  0
  5  6  1  0  0  0  0
  1  7  1  0  0  0  0
  5  8  1  0  0  0  0
  7  8  1  0  0  0  0
  6  9  1  0  0  0  0
  1 10  1  0  0  0  0
  8 11  2  0  0  0  0
  2 12  1  0  0  0  0
 12 13  2  0  0  0  0
  2 14  1  0  0  0  0
 10 15  1  0  0  0  0
 12 16  1  0  0  0  0
  3 17  1  0  0  0  0
  3 18  1  0  0  0  0
  4 19  1  0  0  0  0
  4 20  1  0  0  0  0
  5 21  1  0  0  0  0
  6 22  1  0  0  0  0
  7 23  1  0  0  0  0
  7 24  1  0  0  0  0
  9 25  1  0  0  0  0
 10 26  1  0  0  0  0
 10 27  1  0  0  0  0
 11 28  1  0  0  0  0
 11 29  1  0  0  0  0
 13 30  1  0  0  0  0
 13 31  1  0  0  0  0
 15 32  1  0  0  0  0
 16 33  1  0  0  0  0
 16 34  1  0  0  0  0
 16 35  1  0  0  0  0
M  END
