 xtb: 6.7.1 (edcfbbe)
          08092601523D

 42 44  0     0  0            999 V2000
    0.9618    1.5392   -0.0046 c   0  0  0  0  0  0  0  0  0  0  0  0
    2.2483    1.0277    0.6590 c   0  0  0  0  0  0  0  0  0  0  0  0
    2.9893   -0.0557   -0.1331 c   0  0  0  0  0  0  0  0  0  0  0  0
    2.5494   -1.4810    0.2051 c   0  0  0  0  0  0  0  0  0  0  0  0
    1.1710   -1.8942   -0.3171 c   0  0  0  0  0  0  0  0  0  0  0  0
    0.0914   -0.9103    0.1349 c   0  0  0  0  0  0  0  0  0  0  0  0
    0.1081    0.4251   -0.6229 c   0  0  0  0  0  0  0  0  0  0  0  0
   -0.0011    2.1806    1.0075 c   0  0  0  0  0  0  0  0  0  0  0  0
   -1.3673    2.1505    0.3213 c   0  0  0  0  0  0  0  0  0  0  0  0
   -1.3630    0.8876   -0.5555 c   0  0  0  0  0  0  0  0  0  0  0  0
   -1.1953   -1.4381   -0.1231 o   0  0  0  0  0  0  0  0  0  0  0  0
   -2.1387   -0.3696   -0.0609 c   0  0  0  0  0  0  0  0  0  0  0  0
    0.4053    0.2269   -1.6551 h   0  0  0  0  0  0  0  0  0  0  0  0
   -1.7359    1.1364   -1.5510 h   0  0  0  0  0  0  0  0  0  0  0  0
    0.1969   -0.7393    1.2175 h   0  0  0  0  0  0  0  0  0  0  0  0
    0.8379   -3.3043    0.1676 c   0  0  0  0  0  0  0  0  0  0  0  0
   -3.2835   -0.7233   -1.0118 c   0  0  0  0  0  0  0  0  0  0  0  0
   -2.6866   -0.2669    1.3679 c   0  0  0  0  0  0  0  0  0  0  0  0
    1.3275    2.5566   -1.0903 c   0  0  0  0  0  0  0  0  0  0  0  0
    2.9116    1.8848    0.7984 h   0  0  0  0  0  0  0  0  0  0  0  0
    2.0261    0.6372    1.6541 h   0  0  0  0  0  0  0  0  0  0  0  0
    2.8799    0.1169   -1.2041 h   0  0  0  0  0  0  0  0  0  0  0  0
    4.0547    0.0206    0.0990 h   0  0  0  0  0  0  0  0  0  0  0  0
    2.5646   -1.6034    1.2914 h   0  0  0  0  0  0  0  0  0  0  0  0
    3.2838   -2.1766   -0.2090 h   0  0  0  0  0  0  0  0  0  0  0  0
    1.1854   -1.9016   -1.4125 h   0  0  0  0  0  0  0  0  0  0  0  0
    0.3012    3.1914    1.2792 h   0  0  0  0  0  0  0  0  0  0  0  0
   -0.0276    1.5823    1.9200 h   0  0  0  0  0  0  0  0  0  0  0  0
   -2.1832    2.1683    1.0389 h   0  0  0  0  0  0  0  0  0  0  0  0
   -1.4777    3.0292   -0.3155 h   0  0  0  0  0  0  0  0  0  0  0  0
    0.8174   -3.3351    1.2549 h   0  0  0  0  0  0  0  0  0  0  0  0
   -0.1392   -3.5993   -0.2021 h   0  0  0  0  0  0  0  0  0  0  0  0
    1.5830   -4.0133   -0.1866 h   0  0  0  0  0  0  0  0  0  0  0  0
   -3.7705   -1.6351   -0.6768 h   0  0  0  0  0  0  0  0  0  0  0  0
   -2.8947   -0.8922   -2.0127 h   0  0  0  0  0  0  0  0  0  0  0  0
   -4.0127    0.0821   -1.0396 h   0  0  0  0  0  0  0  0  0  0  0  0
   -1.9158    0.0451    2.0667 h   0  0  0  0  0  0  0  0  0  0  0  0
   -3.5202    0.4282    1.4164 h   0  0  0  0  0  0  0  0  0  0  0  0
   -3.0386   -1.2515    1.6677 h   0  0  0  0  0  0  0  0  0  0  0  0
    1.7930    3.4345   -0.6466 h   0  0  0  0  0  0  0  0  0  0  0  0
    2.0287    2.1238   -1.8002 h   0  0  0  0  0  0  0  0  0  0  0  0
    0.4452    2.8752   -1.6384 h   0  0  0  0  0  0  0  0  0  0  0  0
  1  2  1  0  0  0  0
  2  3  1  0  0  0  0
  3  4  1  0  0  0  0
  4  5  1  0  0  0  0
  5  6  1  0  0  0  0
  1  7  1  0  0  0  0
  6  7  1  0  0  0  0
  1  8  1  0  0  0  0
  8  9  1  0  0  0  0
  7 10  1  0  0  0  0
  9 10  1  0  0  0  0
  6 11  1  0  0  0  0
 10 12  1  0  0  0  0
 11 12  1  0  0  0  0
  7 13  1  0  0  0  0
 10 14  1  0  0  0  0
  6 15  1  0  0  0  0
  5 16  1  0  0  0  0
 12 17  1  0  0  0  0
 12 18  1  0  0  0  0
  1 19  1  0  0  0  0
  2 20  1  0  0  0  0
  2 21  1  0  0  0  0
  3 22  1  0  0  0  0
  3 23  1  0  0  0  0
  4 24  1  0  0  0  0
  4 25  1  0  0  0  0
  5 26  1  0  0  0  0
  8 27  1  0  0  0  0
  8 28  1  0  0  0  0
  9 29  1  0  0  0  0
  9 30  1  0  0  0  0
 16 31  1  0  0  0  0
 16 32  1  0  0  0  0
 16 33  1  0  0  0  0
 17 34  1  0  0  0  0
 17 35  1  0  0  0  0
 17 36  1  0  0  0  0
 18 37  1  0  0  0  0
 18 38  1  0  0  0  0
 18 39  1  0  0  0  0
 19 40  1  0  0  0  0
 19 41  1  0  0  0  0
 19 42  1  0  0  0  0
M  END
