 xtb: 6.7.1 (edcfbbe)
          08092612143D

 51 55  0     0  0            999 V2000
    1.3810    1.2731    2.1450 c   0  0  0  0  0  0  0  0  0  0  0  0
    2.5324    1.4275    1.1561 c   0  0  0  0  0  0  0  0  0  0  0  0
    2.1990    0.9360   -0.2677 c   0  0  0  0  0  0  0  0  0  0  0  0
    1.6277   -0.5229   -0.2447 c   0  0  0  0  0  0  0  0  0  0  0  0
    0.3542   -0.4669    0.6320 c   0  0  0  0  0  0  0  0  0  0  0  0
    0.7540   -0.1172    2.0807 c   0  0  0  0  0  0  0  0  0  0  0  0
    1.2402   -0.9686   -1.6625 c   0  0  0  0  0  0  0  0  0  0  0  0
    0.4577   -2.2745   -1.6347 c   0  0  0  0  0  0  0  0  0  0  0  0
   -0.8690   -2.1049   -0.8989 c   0  0  0  0  0  0  0  0  0  0  0  0
   -0.6874   -1.6394    0.5699 c   0  0  0  0  0  0  0  0  0  0  0  0
   -0.4975    0.6554    0.1181 c   0  0  0  0  0  0  0  0  0  0  0  0
   -2.0088   -0.9208    0.9690 c   0  0  0  0  0  0  0  0  0  0  0  0
   -1.8399    0.4394    0.3621 c   0  0  0  0  0  0  0  0  0  0  0  0
   -2.7663    1.3897   -0.0390 c   0  0  0  0  0  0  0  0  0  0  0  0
   -2.2946    2.5236   -0.6991 c   0  0  0  0  0  0  0  0  0  0  0  0
   -0.9498    2.7077   -0.9761 c   0  0  0  0  0  0  0  0  0  0  0  0
   -0.0206    1.7572   -0.5614 c   0  0  0  0  0  0  0  0  0  0  0  0
    1.2971    1.8778   -0.8694 o   0  0  0  0  0  0  0  0  0  0  0  0
   -4.0986    1.1853    0.2012 o   0  0  0  0  0  0  0  0  0  0  0  0
    3.4629    1.0587   -1.1257 c   0  0  0  0  0  0  0  0  0  0  0  0
    2.6824   -1.5013    0.2917 c   0  0  0  0  0  0  0  0  0  0  0  0
   -1.6922   -3.3867   -1.0334 c   0  0  0  0  0  0  0  0  0  0  0  0
   -0.4037   -2.8105    1.5062 c   0  0  0  0  0  0  0  0  0  0  0  0
    1.7505    1.4611    3.1562 h   0  0  0  0  0  0  0  0  0  0  0  0
    0.6159    2.0226    1.9330 h   0  0  0  0  0  0  0  0  0  0  0  0
    3.4102    0.8937    1.5211 h   0  0  0  0  0  0  0  0  0  0  0  0
    2.8033    2.4834    1.0826 h   0  0  0  0  0  0  0  0  0  0  0  0
   -0.1300   -0.1226    2.7185 h   0  0  0  0  0  0  0  0  0  0  0  0
    1.4556   -0.8560    2.4663 h   0  0  0  0  0  0  0  0  0  0  0  0
    0.6294   -0.2007   -2.1413 h   0  0  0  0  0  0  0  0  0  0  0  0
    2.1400   -1.1025   -2.2655 h   0  0  0  0  0  0  0  0  0  0  0  0
    0.2499   -2.5845   -2.6618 h   0  0  0  0  0  0  0  0  0  0  0  0
    1.0513   -3.0642   -1.1732 h   0  0  0  0  0  0  0  0  0  0  0  0
   -1.4147   -1.3053   -1.4133 h   0  0  0  0  0  0  0  0  0  0  0  0
   -2.1160   -0.8571    2.0541 h   0  0  0  0  0  0  0  0  0  0  0  0
   -2.8917   -1.4284    0.5840 h   0  0  0  0  0  0  0  0  0  0  0  0
   -3.0046    3.2727   -1.0258 h   0  0  0  0  0  0  0  0  0  0  0  0
   -0.6174    3.5781   -1.5187 h   0  0  0  0  0  0  0  0  0  0  0  0
   -4.6009    1.9296   -0.1494 h   0  0  0  0  0  0  0  0  0  0  0  0
    3.8059    2.0898   -1.0938 h   0  0  0  0  0  0  0  0  0  0  0  0
    4.2529    0.4143   -0.7557 h   0  0  0  0  0  0  0  0  0  0  0  0
    3.2448    0.8118   -2.1597 h   0  0  0  0  0  0  0  0  0  0  0  0
    3.2223   -1.1066    1.1452 h   0  0  0  0  0  0  0  0  0  0  0  0
    2.2119   -2.4284    0.6002 h   0  0  0  0  0  0  0  0  0  0  0  0
    3.4064   -1.7351   -0.4855 h   0  0  0  0  0  0  0  0  0  0  0  0
   -2.6267   -3.3231   -0.4823 h   0  0  0  0  0  0  0  0  0  0  0  0
   -1.9332   -3.5530   -2.0814 h   0  0  0  0  0  0  0  0  0  0  0  0
   -1.1363   -4.2503   -0.6771 h   0  0  0  0  0  0  0  0  0  0  0  0
   -1.2871   -3.4389    1.5865 h   0  0  0  0  0  0  0  0  0  0  0  0
    0.4151   -3.4261    1.1431 h   0  0  0  0  0  0  0  0  0  0  0  0
   -0.1557   -2.4641    2.5050 h   0  0  0  0  0  0  0  0  0  0  0  0
  1  2  1  0  0  0  0
  2  3  1  0  0  0  0
  3  4  1  0  0  0  0
  4  5  1  0  0  0  0
  1  6  1  0  0  0  0
  5  6  1  0  0  0  0
  4  7  1  0  0  0  0
  7  8  1  0  0  0  0
  8  9  1  0  0  0  0
  5 10  1  0  0  0  0
  9 10  1  0  0  0  0
  5 11  1  0  0  0  0
 10 12  1  0  0  0  0
 11 13  4  0  0  0  0
 12 13  1  0  0  0  0
 13 14  4  0  0  0  0
 14 15  4  0  0  0  0
 15 16  4  0  0  0  0
 11 17  4  0  0  0  0
 16 17  4  0  0  0  0
  3 18  1  0  0  0  0
 17 18  1  0  0  0  0
 14 19  1  0  0  0  0
  3 20  1  0  0  0  0
  4 21  1  0  0  0  0
  9 22  1  0  0  0  0
 10 23  1  0  0  0  0
  1 24  1  0  0  0  0
  1 25  1  0  0  0  0
  2 26  1  0  0  0  0
  2 27  1  0  0  0  0
  6 28  1  0  0  0  0
  6 29  1  0  0  0  0
  7 30  1  0  0  0  0
  7 31  1  0  0  0  0
  8 32  1  0  0  0  0
  8 33  1  0  0  0  0
  9 34  1  0  0  0  0
 12 35  1  0  0  0  0
 12 36  1  0  0  0  0
 15 37  1  0  0  0  0
 16 38  1  0  0  0  0
 19 39  1  0  0  0  0
 20 40  1  0  0  0  0
 20 41  1  0  0  0  0
 20 42  1  0  0  0  0
 21 43  1  0  0  0  0
 21 44  1  0  0  0  0
 21 45  1  0  0  0  0
 22 46  1  0  0  0  0
 22 47  1  0  0  0  0
 22 48  1  0  0  0  0
 23 49  1  0  0  0  0
 23 50  1  0  0  0  0
 23 51  1  0  0  0  0
M  END
