 xtb: 6.7.1 (edcfbbe)
          08092621573D

 50 55  0     0  0            999 V2000
   -0.2816   -0.5264   -2.8089 c   0  0  0  0  0  0  0  0  0  0  0  0
    0.7800    0.5282   -2.4873 c   0  0  0  0  0  0  0  0  0  0  0  0
   -2.5820    3.0190    0.6926 c   0  0  0  0  0  0  0  0  0  0  0  0
   -3.6153    2.5633   -0.1082 c   0  0  0  0  0  0  0  0  0  0  0  0
   -3.4855    1.3567   -0.7594 c   0  0  0  0  0  0  0  0  0  0  0  0
   -2.3314    0.5821   -0.6178 c   0  0  0  0  0  0  0  0  0  0  0  0
   -1.2949    1.0173    0.2163 c   0  0  0  0  0  0  0  0  0  0  0  0
   -1.4464    2.2451    0.8487 c   0  0  0  0  0  0  0  0  0  0  0  0
   -2.2470   -0.6250   -1.2626 n   0  0  0  0  0  0  0  0  0  0  0  0
   -0.9622   -1.1822   -1.5783 c   0  0  0  0  0  0  0  0  0  0  0  0
   -0.0434   -1.1712   -0.3331 c   0  0  0  0  0  0  0  0  0  0  0  0
   -0.0547    0.1792    0.4497 c   0  0  0  0  0  0  0  0  0  0  0  0
    1.3876   -1.3189   -0.8759 c   0  0  0  0  0  0  0  0  0  0  0  0
    1.6825    0.1313   -1.2962 c   0  0  0  0  0  0  0  0  0  0  0  0
    1.2186    0.8664   -0.0559 c   0  0  0  0  0  0  0  0  0  0  0  0
    3.1196    0.4964   -1.5277 c   0  0  0  0  0  0  0  0  0  0  0  0
    3.8225    1.2386   -0.6822 c   0  0  0  0  0  0  0  0  0  0  0  0
    3.3199    1.6932    0.6644 c   0  0  0  0  0  0  0  0  0  0  0  0
    2.2492    0.7466    1.0494 n   0  0  0  0  0  0  0  0  0  0  0  0
    1.4018    1.0379    2.2286 c   0  0  0  0  0  0  0  0  0  0  0  0
    0.2405    0.0680    1.9739 c   0  0  0  0  0  0  0  0  0  0  0  0
    2.8158   -0.4361    1.2500 o   0  0  0  0  0  0  0  0  0  0  0  0
    1.0743    1.9358   -0.2265 h   0  0  0  0  0  0  0  0  0  0  0  0
   -0.4951   -2.3548    0.5013 c   0  0  0  0  0  0  0  0  0  0  0  0
   -0.0146   -3.4551    0.4534 o   0  0  0  0  0  0  0  0  0  0  0  0
   -1.5650   -2.0482    1.2448 o   0  0  0  0  0  0  0  0  0  0  0  0
   -2.1102   -3.1077    2.0166 c   0  0  0  0  0  0  0  0  0  0  0  0
    0.1787   -1.3156   -3.4044 h   0  0  0  0  0  0  0  0  0  0  0  0
   -1.0572   -0.0700   -3.4290 h   0  0  0  0  0  0  0  0  0  0  0  0
    1.3919    0.6808   -3.3792 h   0  0  0  0  0  0  0  0  0  0  0  0
    0.2928    1.4802   -2.2647 h   0  0  0  0  0  0  0  0  0  0  0  0
   -2.6605    3.9686    1.1997 h   0  0  0  0  0  0  0  0  0  0  0  0
   -4.5126    3.1513   -0.2310 h   0  0  0  0  0  0  0  0  0  0  0  0
   -4.2801    0.9912   -1.3953 h   0  0  0  0  0  0  0  0  0  0  0  0
   -0.6646    2.6193    1.4904 h   0  0  0  0  0  0  0  0  0  0  0  0
   -2.9740   -0.8023   -1.9400 h   0  0  0  0  0  0  0  0  0  0  0  0
   -1.1367   -2.2364   -1.8357 h   0  0  0  0  0  0  0  0  0  0  0  0
    2.0760   -1.5920   -0.0731 h   0  0  0  0  0  0  0  0  0  0  0  0
    1.4569   -2.0435   -1.6814 h   0  0  0  0  0  0  0  0  0  0  0  0
    3.5675    0.1465   -2.4462 h   0  0  0  0  0  0  0  0  0  0  0  0
    4.8476    1.4981   -0.9013 h   0  0  0  0  0  0  0  0  0  0  0  0
    2.9608    2.7286    0.6466 h   0  0  0  0  0  0  0  0  0  0  0  0
    4.1193    1.5960    1.4020 h   0  0  0  0  0  0  0  0  0  0  0  0
    1.9616    0.7853    3.1279 h   0  0  0  0  0  0  0  0  0  0  0  0
    1.1018    2.0868    2.2509 h   0  0  0  0  0  0  0  0  0  0  0  0
   -0.6353    0.2900    2.5790 h   0  0  0  0  0  0  0  0  0  0  0  0
    0.6064   -0.9308    2.2090 h   0  0  0  0  0  0  0  0  0  0  0  0
   -2.9643   -2.6908    2.5439 h   0  0  0  0  0  0  0  0  0  0  0  0
   -2.4222   -3.9291    1.3683 h   0  0  0  0  0  0  0  0  0  0  0  0
   -1.3672   -3.4836    2.7230 h   0  0  0  0  0  0  0  0  0  0  0  0
  1  2  1  0  0  0  0
  3  4  4  0  0  0  0
  4  5  4  0  0  0  0
  5  6  4  0  0  0  0
  6  7  4  0  0  0  0
  3  8  4  0  0  0  0
  7  8  4  0  0  0  0
  6  9  1  0  0  0  0
  1 10  1  0  0  0  0
  9 10  1  0  0  0  0
 10 11  1  0  0  0  0
  7 12  1  0  0  0  0
 11 12  1  0  0  0  0
 11 13  1  0  0  0  0
  2 14  1  0  0  0  0
 13 14  1  0  0  0  0
 12 15  1  0  0  0  0
 14 15  1  0  0  0  0
 14 16  1  0  0  0  0
 16 17  2  0  0  0  0
 17 18  1  0  0  0  0
 15 19  1  0  0  0  0
 18 19  1  0  0  0  0
 19 20  1  0  0  0  0
 12 21  1  0  0  0  0
 20 21  1  0  0  0  0
 19 22  1  0  0  0  0
 15 23  1  0  0  0  0
 11 24  1  0  0  0  0
 24 25  2  0  0  0  0
 24 26  1  0  0  0  0
 26 27  1  0  0  0  0
  1 28  1  0  0  0  0
  1 29  1  0  0  0  0
  2 30  1  0  0  0  0
  2 31  1  0  0  0  0
  3 32  1  0  0  0  0
  4 33  1  0  0  0  0
  5 34  1  0  0  0  0
  8 35  1  0  0  0  0
  9 36  1  0  0  0  0
 10 37  1  0  0  0  0
 13 38  1  0  0  0  0
 13 39  1  0  0  0  0
 16 40  1  0  0  0  0
 17 41  1  0  0  0  0
 18 42  1  0  0  0  0
 18 43  1  0  0  0  0
 20 44  1  0  0  0  0
 20 45  1  0  0  0  0
 21 46  1  0  0  0  0
 21 47  1  0  0  0  0
 27 48  1  0  0  0  0
 27 49  1  0  0  0  0
 27 50  1  0  0  0  0
M  END
