 xtb: 6.7.1 (edcfbbe)
          08092615283D

 35 36  0     0  0            999 V2000
    0.1352   -0.5928    0.4243 c   0  0  0  0  0  0  0  0  0  0  0  0
   -0.9098    0.5004    0.7802 c   0  0  0  0  0  0  0  0  0  0  0  0
   -0.3277    1.9113    0.5602 c   0  0  0  0  0  0  0  0  0  0  0  0
    0.5361    2.0667   -0.6926 c   0  0  0  0  0  0  0  0  0  0  0  0
    1.5084    0.8886   -0.8164 c   0  0  0  0  0  0  0  0  0  0  0  0
    0.6826   -0.3832   -1.0024 c   0  0  0  0  0  0  0  0  0  0  0  0
    1.4024   -0.3648    1.2723 c   0  0  0  0  0  0  0  0  0  0  0  0
    2.2033    0.6501    0.4987 c   0  0  0  0  0  0  0  0  0  0  0  0
    1.5227   -1.4397   -1.4298 o   0  0  0  0  0  0  0  0  0  0  0  0
   -0.4319   -2.0077    0.6256 c   0  0  0  0  0  0  0  0  0  0  0  0
    3.3198    1.2297    0.8997 c   0  0  0  0  0  0  0  0  0  0  0  0
   -2.2789    0.3010    0.1574 c   0  0  0  0  0  0  0  0  0  0  0  0
   -3.2358   -0.2954    0.8618 c   0  0  0  0  0  0  0  0  0  0  0  0
   -1.0726    0.3964    1.8604 h   0  0  0  0  0  0  0  0  0  0  0  0
   -1.2325   -2.4516   -0.4523 o   0  0  0  0  0  0  0  0  0  0  0  0
   -2.5815    0.8228   -1.2164 c   0  0  0  0  0  0  0  0  0  0  0  0
   -1.1428    2.6375    0.5457 h   0  0  0  0  0  0  0  0  0  0  0  0
    0.2970    2.1512    1.4224 h   0  0  0  0  0  0  0  0  0  0  0  0
   -0.0746    2.1166   -1.5947 h   0  0  0  0  0  0  0  0  0  0  0  0
    1.0996    2.9985   -0.6178 h   0  0  0  0  0  0  0  0  0  0  0  0
    2.2080    1.0399   -1.6397 h   0  0  0  0  0  0  0  0  0  0  0  0
   -0.1112   -0.2475   -1.7435 h   0  0  0  0  0  0  0  0  0  0  0  0
    1.9760   -1.2920    1.3409 h   0  0  0  0  0  0  0  0  0  0  0  0
    1.1776   -0.0360    2.2867 h   0  0  0  0  0  0  0  0  0  0  0  0
    0.9747   -2.2321   -1.5008 h   0  0  0  0  0  0  0  0  0  0  0  0
   -0.9953   -2.0531    1.5657 h   0  0  0  0  0  0  0  0  0  0  0  0
    0.3872   -2.7295    0.6887 h   0  0  0  0  0  0  0  0  0  0  0  0
    3.7545    1.0194    1.8627 h   0  0  0  0  0  0  0  0  0  0  0  0
    3.8465    1.9343    0.2787 h   0  0  0  0  0  0  0  0  0  0  0  0
   -4.2254   -0.4482    0.4627 h   0  0  0  0  0  0  0  0  0  0  0  0
   -3.0779   -0.6536    1.8658 h   0  0  0  0  0  0  0  0  0  0  0  0
   -2.0306   -1.9017   -0.4728 h   0  0  0  0  0  0  0  0  0  0  0  0
   -2.3576    1.8850   -1.2810 h   0  0  0  0  0  0  0  0  0  0  0  0
   -1.9997    0.3112   -1.9804 h   0  0  0  0  0  0  0  0  0  0  0  0
   -3.6358    0.6814   -1.4448 h   0  0  0  0  0  0  0  0  0  0  0  0
  1  2  1  0  0  0  0
  2  3  1  0  0  0  0
  3  4  1  0  0  0  0
  4  5  1  0  0  0  0
  1  6  1  0  0  0  0
  5  6  1  0  0  0  0
  1  7  1  0  0  0  0
  5  8  1  0  0  0  0
  7  8  1  0  0  0  0
  6  9  1  0  0  0  0
  1 10  1  0  0  0  0
  8 11  2  0  0  0  0
  2 12  1  0  0  0  0
 12 13  2  0  0  0  0
  2 14  1  0  0  0  0
 10 15  1  0  0  0  0
 12 16  1  0  0  0  0
  3 17  1  0  0  0  0
  3 18  1  0  0  0  0
  4 19  1  0  0  0  0
  4 20  1  0  0  0  0
  5 21  1  0  0  0  0
  6 22  1  0  0  0  0
  7 23  1  0  0  0  0
  7 24  1  0  0  0  0
  9 25  1  0  0  0  0
 10 26  1  0  0  0  0
 10 27  1  0  0  0  0
 11 28  1  0  0  0  0
 11 29  1  0  0  0  0
 13 30  1  0  0  0  0
 13 31  1  0  0  0  0
 15 32  1  0  0  0  0
 16 33  1  0  0  0  0
 16 34  1  0  0  0  0
 16 35  1  0  0  0  0
M  END
