 xtb: 6.7.1 (edcfbbe)
          08092615283D

 35 36  0     0  0            999 V2000
   -0.0408   -0.5663    0.2865 c   0  0  0  0  0  0  0  0  0  0  0  0
   -1.0067    0.5621    0.7268 c   0  0  0  0  0  0  0  0  0  0  0  0
   -0.3449    1.9520    0.6080 c   0  0  0  0  0  0  0  0  0  0  0  0
    0.5706    2.1434   -0.6019 c   0  0  0  0  0  0  0  0  0  0  0  0
    1.4537    0.9095   -0.8081 c   0  0  0  0  0  0  0  0  0  0  0  0
    0.5379   -0.2774   -1.1112 c   0  0  0  0  0  0  0  0  0  0  0  0
    1.2270   -0.5082    1.1592 c   0  0  0  0  0  0  0  0  0  0  0  0
    2.1088    0.5078    0.4897 c   0  0  0  0  0  0  0  0  0  0  0  0
    1.2496   -1.4072   -1.5906 o   0  0  0  0  0  0  0  0  0  0  0  0
   -0.7500   -1.9278    0.3831 c   0  0  0  0  0  0  0  0  0  0  0  0
    3.2575    0.9735    0.9439 c   0  0  0  0  0  0  0  0  0  0  0  0
   -2.3917    0.5015    0.1159 c   0  0  0  0  0  0  0  0  0  0  0  0
   -3.4137    0.0977    0.8577 c   0  0  0  0  0  0  0  0  0  0  0  0
   -1.1692    0.3922    1.7980 h   0  0  0  0  0  0  0  0  0  0  0  0
    0.1148   -3.0257    0.2995 o   0  0  0  0  0  0  0  0  0  0  0  0
   -2.6272    0.9339   -1.3012 c   0  0  0  0  0  0  0  0  0  0  0  0
   -1.1236    2.7175    0.6081 h   0  0  0  0  0  0  0  0  0  0  0  0
    0.2603    2.1093    1.5028 h   0  0  0  0  0  0  0  0  0  0  0  0
   -0.0043    2.3205   -1.5132 h   0  0  0  0  0  0  0  0  0  0  0  0
    1.1988    3.0204   -0.4324 h   0  0  0  0  0  0  0  0  0  0  0  0
    2.1803    1.0960   -1.6056 h   0  0  0  0  0  0  0  0  0  0  0  0
   -0.2346   -0.0166   -1.8434 h   0  0  0  0  0  0  0  0  0  0  0  0
    1.7103   -1.4882    1.1520 h   0  0  0  0  0  0  0  0  0  0  0  0
    1.0097   -0.2546    2.1966 h   0  0  0  0  0  0  0  0  0  0  0  0
    1.8391   -1.1224   -2.2963 h   0  0  0  0  0  0  0  0  0  0  0  0
   -1.5211   -1.9823   -0.4004 h   0  0  0  0  0  0  0  0  0  0  0  0
   -1.2481   -2.0098    1.3531 h   0  0  0  0  0  0  0  0  0  0  0  0
    3.6649    0.6526    1.8874 h   0  0  0  0  0  0  0  0  0  0  0  0
    3.8366    1.6947    0.3919 h   0  0  0  0  0  0  0  0  0  0  0  0
   -4.4170    0.0561    0.4681 h   0  0  0  0  0  0  0  0  0  0  0  0
   -3.2951   -0.2169    1.8805 h   0  0  0  0  0  0  0  0  0  0  0  0
    0.6557   -2.8968   -0.4927 h   0  0  0  0  0  0  0  0  0  0  0  0
   -2.1085    1.8620   -1.5258 h   0  0  0  0  0  0  0  0  0  0  0  0
   -2.2873    0.1711   -2.0008 h   0  0  0  0  0  0  0  0  0  0  0  0
   -3.6908    1.0850   -1.4709 h   0  0  0  0  0  0  0  0  0  0  0  0
  1  2  1  0  0  0  0
  2  3  1  0  0  0  0
  3  4  1  0  0  0  0
  4  5  1  0  0  0  0
  1  6  1  0  0  0  0
  5  6  1  0  0  0  0
  1  7  1  0  0  0  0
  5  8  1  0  0  0  0
  7  8  1  0  0  0  0
  6  9  1  0  0  0  0
  1 10  1  0  0  0  0
  8 11  2  0  0  0  0
  2 12  1  0  0  0  0
 12 13  2  0  0  0  0
  2 14  1  0  0  0  0
 10 15  1  0  0  0  0
 12 16  1  0  0  0  0
  3 17  1  0  0  0  0
  3 18  1  0  0  0  0
  4 19  1  0  0  0  0
  4 20  1  0  0  0  0
  5 21  1  0  0  0  0
  6 22  1  0  0  0  0
  7 23  1  0  0  0  0
  7 24  1  0  0  0  0
  9 25  1  0  0  0  0
 10 26  1  0  0  0  0
 10 27  1  0  0  0  0
 11 28  1  0  0  0  0
 11 29  1  0  0  0  0
 13 30  1  0  0  0  0
 13 31  1  0  0  0  0
 15 32  1  0  0  0  0
 16 33  1  0  0  0  0
 16 34  1  0  0  0  0
 16 35  1  0  0  0  0
M  END
