 xtb: 6.7.1 (edcfbbe)
          08092617053D

 35 36  0     0  0            999 V2000
    0.0883   -0.6183    0.1048 c   0  0  0  0  0  0  0  0  0  0  0  0
   -0.9441    0.4018    0.6501 c   0  0  0  0  0  0  0  0  0  0  0  0
   -0.3308    1.8141    0.7389 c   0  0  0  0  0  0  0  0  0  0  0  0
    0.5732    2.2068   -0.4302 c   0  0  0  0  0  0  0  0  0  0  0  0
    1.4980    1.0483   -0.8149 c   0  0  0  0  0  0  0  0  0  0  0  0
    0.6376   -0.1399   -1.2540 c   0  0  0  0  0  0  0  0  0  0  0  0
    1.3487   -0.5880    0.9913 c   0  0  0  0  0  0  0  0  0  0  0  0
    2.1969    0.5143    0.4110 c   0  0  0  0  0  0  0  0  0  0  0  0
    1.3872   -1.1248   -1.9390 o   0  0  0  0  0  0  0  0  0  0  0  0
   -0.5102   -2.0218    0.0005 c   0  0  0  0  0  0  0  0  0  0  0  0
    3.3574    0.9338    0.8826 c   0  0  0  0  0  0  0  0  0  0  0  0
   -2.2792    0.3665   -0.0656 c   0  0  0  0  0  0  0  0  0  0  0  0
   -2.5444    0.9504   -1.2247 c   0  0  0  0  0  0  0  0  0  0  0  0
   -1.1509    0.0806    1.6771 h   0  0  0  0  0  0  0  0  0  0  0  0
   -0.8853   -2.4831    1.2878 o   0  0  0  0  0  0  0  0  0  0  0  0
   -3.3643   -0.3444    0.6928 c   0  0  0  0  0  0  0  0  0  0  0  0
   -1.1393    2.5414    0.8332 h   0  0  0  0  0  0  0  0  0  0  0  0
    0.2639    1.8677    1.6529 h   0  0  0  0  0  0  0  0  0  0  0  0
   -0.0142    2.4948   -1.3023 h   0  0  0  0  0  0  0  0  0  0  0  0
    1.1741    3.0705   -0.1377 h   0  0  0  0  0  0  0  0  0  0  0  0
    2.1948    1.3610   -1.5964 h   0  0  0  0  0  0  0  0  0  0  0  0
   -0.1569    0.1283   -1.9499 h   0  0  0  0  0  0  0  0  0  0  0  0
    1.8734   -1.5457    0.9393 h   0  0  0  0  0  0  0  0  0  0  0  0
    1.1069   -0.4181    2.0398 h   0  0  0  0  0  0  0  0  0  0  0  0
    2.1796   -1.3091   -1.4166 h   0  0  0  0  0  0  0  0  0  0  0  0
    0.2367   -2.6949   -0.4399 h   0  0  0  0  0  0  0  0  0  0  0  0
   -1.3796   -1.9951   -0.6698 h   0  0  0  0  0  0  0  0  0  0  0  0
    3.7940    0.5123    1.7728 h   0  0  0  0  0  0  0  0  0  0  0  0
    3.9140    1.7202    0.4011 h   0  0  0  0  0  0  0  0  0  0  0  0
   -3.5291    0.8942   -1.6606 h   0  0  0  0  0  0  0  0  0  0  0  0
   -1.8234    1.5133   -1.7879 h   0  0  0  0  0  0  0  0  0  0  0  0
   -1.1766   -3.3989    1.2097 h   0  0  0  0  0  0  0  0  0  0  0  0
   -2.9975   -1.2821    1.1033 h   0  0  0  0  0  0  0  0  0  0  0  0
   -3.6832    0.2756    1.5319 h   0  0  0  0  0  0  0  0  0  0  0  0
   -4.2284   -0.5383    0.0620 h   0  0  0  0  0  0  0  0  0  0  0  0
  1  2  1  0  0  0  0
  2  3  1  0  0  0  0
  3  4  1  0  0  0  0
  4  5  1  0  0  0  0
  1  6  1  0  0  0  0
  5  6  1  0  0  0  0
  1  7  1  0  0  0  0
  5  8  1  0  0  0  0
  7  8  1  0  0  0  0
  6  9  1  0  0  0  0
  1 10  1  0  0  0  0
  8 11  2  0  0  0  0
  2 12  1  0  0  0  0
 12 13  2  0  0  0  0
  2 14  1  0  0  0  0
 10 15  1  0  0  0  0
 12 16  1  0  0  0  0
  3 17  1  0  0  0  0
  3 18  1  0  0  0  0
  4 19  1  0  0  0  0
  4 20  1  0  0  0  0
  5 21  1  0  0  0  0
  6 22  1  0  0  0  0
  7 23  1  0  0  0  0
  7 24  1  0  0  0  0
  9 25  1  0  0  0  0
 10 26  1  0  0  0  0
 10 27  1  0  0  0  0
 11 28  1  0  0  0  0
 11 29  1  0  0  0  0
 13 30  1  0  0  0  0
 13 31  1  0  0  0  0
 15 32  1  0  0  0  0
 16 33  1  0  0  0  0
 16 34  1  0  0  0  0
 16 35  1  0  0  0  0
M  END
