 xtb: 6.7.1 (edcfbbe)
          08092617053D

 35 36  0     0  0            999 V2000
    0.0931   -0.6459    0.0721 c   0  0  0  0  0  0  0  0  0  0  0  0
   -0.9446    0.3160    0.7114 c   0  0  0  0  0  0  0  0  0  0  0  0
   -0.3459    1.7242    0.8808 c   0  0  0  0  0  0  0  0  0  0  0  0
    0.4899    2.2058   -0.3056 c   0  0  0  0  0  0  0  0  0  0  0  0
    1.4484    1.1016   -0.7649 c   0  0  0  0  0  0  0  0  0  0  0  0
    0.6161   -0.0840   -1.2592 c   0  0  0  0  0  0  0  0  0  0  0  0
    1.3773   -0.6490    0.9252 c   0  0  0  0  0  0  0  0  0  0  0  0
    2.1766    0.5209    0.4210 c   0  0  0  0  0  0  0  0  0  0  0  0
    1.4007   -1.0689   -1.9152 o   0  0  0  0  0  0  0  0  0  0  0  0
   -0.4760   -2.0557   -0.0870 c   0  0  0  0  0  0  0  0  0  0  0  0
    3.3200    0.9611    0.9137 c   0  0  0  0  0  0  0  0  0  0  0  0
   -2.3127    0.3043    0.0554 c   0  0  0  0  0  0  0  0  0  0  0  0
   -3.2535   -0.4989    0.5348 c   0  0  0  0  0  0  0  0  0  0  0  0
   -1.1078   -0.0895    1.7162 h   0  0  0  0  0  0  0  0  0  0  0  0
   -0.7986   -2.5810    1.1890 o   0  0  0  0  0  0  0  0  0  0  0  0
   -2.6297    1.2285   -1.0838 c   0  0  0  0  0  0  0  0  0  0  0  0
   -1.1489    2.4344    1.0860 h   0  0  0  0  0  0  0  0  0  0  0  0
    0.3007    1.7124    1.7600 h   0  0  0  0  0  0  0  0  0  0  0  0
   -0.1430    2.4949   -1.1451 h   0  0  0  0  0  0  0  0  0  0  0  0
    1.0649    3.0827   -0.0011 h   0  0  0  0  0  0  0  0  0  0  0  0
    2.1292    1.4847   -1.5305 h   0  0  0  0  0  0  0  0  0  0  0  0
   -0.1904    0.2230   -1.9343 h   0  0  0  0  0  0  0  0  0  0  0  0
    1.9286   -1.5742    0.7437 h   0  0  0  0  0  0  0  0  0  0  0  0
    1.1663   -0.5946    1.9920 h   0  0  0  0  0  0  0  0  0  0  0  0
    1.9372   -0.6264   -2.5852 h   0  0  0  0  0  0  0  0  0  0  0  0
    0.2781   -2.6815   -0.5795 h   0  0  0  0  0  0  0  0  0  0  0  0
   -1.3711   -2.0214   -0.7222 h   0  0  0  0  0  0  0  0  0  0  0  0
    3.7801    0.5032    1.7732 h   0  0  0  0  0  0  0  0  0  0  0  0
    3.8412    1.7983    0.4797 h   0  0  0  0  0  0  0  0  0  0  0  0
   -4.2430   -0.5382    0.1086 h   0  0  0  0  0  0  0  0  0  0  0  0
   -3.0669   -1.1619    1.3628 h   0  0  0  0  0  0  0  0  0  0  0  0
   -1.1232   -3.4811    1.0706 h   0  0  0  0  0  0  0  0  0  0  0  0
   -2.4206    2.2618   -0.8166 h   0  0  0  0  0  0  0  0  0  0  0  0
   -2.0490    0.9838   -1.9709 h   0  0  0  0  0  0  0  0  0  0  0  0
   -3.6838    1.1493   -1.3410 h   0  0  0  0  0  0  0  0  0  0  0  0
  1  2  1  0  0  0  0
  2  3  1  0  0  0  0
  3  4  1  0  0  0  0
  4  5  1  0  0  0  0
  1  6  1  0  0  0  0
  5  6  1  0  0  0  0
  1  7  1  0  0  0  0
  5  8  1  0  0  0  0
  7  8  1  0  0  0  0
  6  9  1  0  0  0  0
  1 10  1  0  0  0  0
  8 11  2  0  0  0  0
  2 12  1  0  0  0  0
 12 13  2  0  0  0  0
  2 14  1  0  0  0  0
 10 15  1  0  0  0  0
 12 16  1  0  0  0  0
  3 17  1  0  0  0  0
  3 18  1  0  0  0  0
  4 19  1  0  0  0  0
  4 20  1  0  0  0  0
  5 21  1  0  0  0  0
  6 22  1  0  0  0  0
  7 23  1  0  0  0  0
  7 24  1  0  0  0  0
  9 25  1  0  0  0  0
 10 26  1  0  0  0  0
 10 27  1  0  0  0  0
 11 28  1  0  0  0  0
 11 29  1  0  0  0  0
 13 30  1  0  0  0  0
 13 31  1  0  0  0  0
 15 32  1  0  0  0  0
 16 33  1  0  0  0  0
 16 34  1  0  0  0  0
 16 35  1  0  0  0  0
M  END
