 xtb: 6.7.1 (edcfbbe)
          08092602483D

 42 44  0     0  0            999 V2000
   -0.7875    1.5815    0.2921 c   0  0  0  0  0  0  0  0  0  0  0  0
   -1.9739    1.1865   -0.6025 c   0  0  0  0  0  0  0  0  0  0  0  0
   -1.6949    0.0685   -1.6058 c   0  0  0  0  0  0  0  0  0  0  0  0
   -2.0689   -1.3117   -1.0753 c   0  0  0  0  0  0  0  0  0  0  0  0
   -1.6290   -1.5507    0.3699 c   0  0  0  0  0  0  0  0  0  0  0  0
   -0.2156   -1.0403    0.6628 c   0  0  0  0  0  0  0  0  0  0  0  0
   -0.0330    0.4436    1.0383 c   0  0  0  0  0  0  0  0  0  0  0  0
    0.2906    2.2945   -0.5463 c   0  0  0  0  0  0  0  0  0  0  0  0
    1.6079    2.0458    0.1764 c   0  0  0  0  0  0  0  0  0  0  0  0
    1.4756    0.6425    0.7644 c   0  0  0  0  0  0  0  0  0  0  0  0
    0.6755   -1.2813   -0.4034 o   0  0  0  0  0  0  0  0  0  0  0  0
    1.8793   -0.5670   -0.1389 c   0  0  0  0  0  0  0  0  0  0  0  0
   -0.2513    0.5401    2.1041 h   0  0  0  0  0  0  0  0  0  0  0  0
    2.0529    0.5747    1.6893 h   0  0  0  0  0  0  0  0  0  0  0  0
    0.1425   -1.6030    1.5472 h   0  0  0  0  0  0  0  0  0  0  0  0
   -1.7201   -3.0444    0.6849 c   0  0  0  0  0  0  0  0  0  0  0  0
    2.5023   -0.2186   -1.4899 c   0  0  0  0  0  0  0  0  0  0  0  0
    2.8598   -1.4736    0.6245 c   0  0  0  0  0  0  0  0  0  0  0  0
   -1.3214    2.5609    1.3475 c   0  0  0  0  0  0  0  0  0  0  0  0
   -2.8282    0.9104    0.0183 h   0  0  0  0  0  0  0  0  0  0  0  0
   -2.2593    2.0917   -1.1461 h   0  0  0  0  0  0  0  0  0  0  0  0
   -2.2600    0.2507   -2.5231 h   0  0  0  0  0  0  0  0  0  0  0  0
   -0.6391    0.0580   -1.8675 h   0  0  0  0  0  0  0  0  0  0  0  0
   -1.6026   -2.0656   -1.7109 h   0  0  0  0  0  0  0  0  0  0  0  0
   -3.1522   -1.4491   -1.1288 h   0  0  0  0  0  0  0  0  0  0  0  0
   -2.3003   -1.0163    1.0502 h   0  0  0  0  0  0  0  0  0  0  0  0
    0.0745    3.3585   -0.6450 h   0  0  0  0  0  0  0  0  0  0  0  0
    0.3254    1.8710   -1.5490 h   0  0  0  0  0  0  0  0  0  0  0  0
    2.4719    2.1556   -0.4750 h   0  0  0  0  0  0  0  0  0  0  0  0
    1.7195    2.7576    0.9970 h   0  0  0  0  0  0  0  0  0  0  0  0
   -1.5382   -3.2317    1.7414 h   0  0  0  0  0  0  0  0  0  0  0  0
   -2.7085   -3.4232    0.4341 h   0  0  0  0  0  0  0  0  0  0  0  0
   -0.9804   -3.5891    0.1035 h   0  0  0  0  0  0  0  0  0  0  0  0
    1.8541    0.4304   -2.0694 h   0  0  0  0  0  0  0  0  0  0  0  0
    3.4688    0.2591   -1.3558 h   0  0  0  0  0  0  0  0  0  0  0  0
    2.6414   -1.1401   -2.0498 h   0  0  0  0  0  0  0  0  0  0  0  0
    3.7886   -0.9432    0.8186 h   0  0  0  0  0  0  0  0  0  0  0  0
    2.4329   -1.7908    1.5731 h   0  0  0  0  0  0  0  0  0  0  0  0
    3.0744   -2.3601    0.0326 h   0  0  0  0  0  0  0  0  0  0  0  0
   -0.5116    2.9494    1.9605 h   0  0  0  0  0  0  0  0  0  0  0  0
   -1.8211    3.4006    0.8682 h   0  0  0  0  0  0  0  0  0  0  0  0
   -2.0397    2.0682    2.0004 h   0  0  0  0  0  0  0  0  0  0  0  0
  1  2  1  0  0  0  0
  2  3  1  0  0  0  0
  3  4  1  0  0  0  0
  4  5  1  0  0  0  0
  5  6  1  0  0  0  0
  1  7  1  0  0  0  0
  6  7  1  0  0  0  0
  1  8  1  0  0  0  0
  8  9  1  0  0  0  0
  7 10  1  0  0  0  0
  9 10  1  0  0  0  0
  6 11  1  0  0  0  0
 10 12  1  0  0  0  0
 11 12  1  0  0  0  0
  7 13  1  0  0  0  0
 10 14  1  0  0  0  0
  6 15  1  0  0  0  0
  5 16  1  0  0  0  0
 12 17  1  0  0  0  0
 12 18  1  0  0  0  0
  1 19  1  0  0  0  0
  2 20  1  0  0  0  0
  2 21  1  0  0  0  0
  3 22  1  0  0  0  0
  3 23  1  0  0  0  0
  4 24  1  0  0  0  0
  4 25  1  0  0  0  0
  5 26  1  0  0  0  0
  8 27  1  0  0  0  0
  8 28  1  0  0  0  0
  9 29  1  0  0  0  0
  9 30  1  0  0  0  0
 16 31  1  0  0  0  0
 16 32  1  0  0  0  0
 16 33  1  0  0  0  0
 17 34  1  0  0  0  0
 17 35  1  0  0  0  0
 17 36  1  0  0  0  0
 18 37  1  0  0  0  0
 18 38  1  0  0  0  0
 18 39  1  0  0  0  0
 19 40  1  0  0  0  0
 19 41  1  0  0  0  0
 19 42  1  0  0  0  0
M  END
