 xtb: 6.7.1 (edcfbbe)
          08092600253D

 42 44  0     0  0            999 V2000
   -0.8323    1.5597    0.3370 c   0  0  0  0  0  0  0  0  0  0  0  0
   -2.2990    1.2259    0.0405 c   0  0  0  0  0  0  0  0  0  0  0  0
   -2.6098    0.3521   -1.1743 c   0  0  0  0  0  0  0  0  0  0  0  0
   -1.8342   -0.9635   -1.2494 c   0  0  0  0  0  0  0  0  0  0  0  0
   -1.5216   -1.5685    0.1190 c   0  0  0  0  0  0  0  0  0  0  0  0
   -0.1828   -1.0485    0.6586 c   0  0  0  0  0  0  0  0  0  0  0  0
    0.0072    0.4507    1.0162 c   0  0  0  0  0  0  0  0  0  0  0  0
   -0.0069    1.9368   -0.8966 c   0  0  0  0  0  0  0  0  0  0  0  0
    1.4308    1.9054   -0.3922 c   0  0  0  0  0  0  0  0  0  0  0  0
    1.4779    0.7333    0.6005 c   0  0  0  0  0  0  0  0  0  0  0  0
    0.8251   -1.3628   -0.2792 o   0  0  0  0  0  0  0  0  0  0  0  0
    1.9909   -0.6256    0.0462 c   0  0  0  0  0  0  0  0  0  0  0  0
   -0.1250    0.5416    2.0971 h   0  0  0  0  0  0  0  0  0  0  0  0
    2.0922    1.0066    1.4605 h   0  0  0  0  0  0  0  0  0  0  0  0
    0.0182   -1.6107    1.5897 h   0  0  0  0  0  0  0  0  0  0  0  0
   -1.4373   -3.0929    0.0192 c   0  0  0  0  0  0  0  0  0  0  0  0
    2.8398   -0.5629   -1.2222 c   0  0  0  0  0  0  0  0  0  0  0  0
    2.7971   -1.3483    1.1402 c   0  0  0  0  0  0  0  0  0  0  0  0
   -0.8635    2.7512    1.3123 c   0  0  0  0  0  0  0  0  0  0  0  0
   -2.7261    0.7706    0.9365 h   0  0  0  0  0  0  0  0  0  0  0  0
   -2.8259    2.1728   -0.1092 h   0  0  0  0  0  0  0  0  0  0  0  0
   -3.6803    0.1314   -1.1365 h   0  0  0  0  0  0  0  0  0  0  0  0
   -2.4359    0.9237   -2.0882 h   0  0  0  0  0  0  0  0  0  0  0  0
   -0.8850   -0.8294   -1.7680 h   0  0  0  0  0  0  0  0  0  0  0  0
   -2.4191   -1.6750   -1.8358 h   0  0  0  0  0  0  0  0  0  0  0  0
   -2.3081   -1.3184    0.8360 h   0  0  0  0  0  0  0  0  0  0  0  0
   -0.2878    2.9102   -1.2983 h   0  0  0  0  0  0  0  0  0  0  0  0
   -0.1334    1.1895   -1.6769 h   0  0  0  0  0  0  0  0  0  0  0  0
    2.1484    1.8036   -1.2015 h   0  0  0  0  0  0  0  0  0  0  0  0
    1.6655    2.8340    0.1299 h   0  0  0  0  0  0  0  0  0  0  0  0
   -0.6462   -3.3703   -0.6718 h   0  0  0  0  0  0  0  0  0  0  0  0
   -1.2173   -3.5313    0.9905 h   0  0  0  0  0  0  0  0  0  0  0  0
   -2.3800   -3.5022   -0.3371 h   0  0  0  0  0  0  0  0  0  0  0  0
    3.7022    0.0821   -1.0785 h   0  0  0  0  0  0  0  0  0  0  0  0
    3.1859   -1.5659   -1.4589 h   0  0  0  0  0  0  0  0  0  0  0  0
    2.2472   -0.2096   -2.0609 h   0  0  0  0  0  0  0  0  0  0  0  0
    3.7505   -0.8484    1.2898 h   0  0  0  0  0  0  0  0  0  0  0  0
    2.2561   -1.3564    2.0832 h   0  0  0  0  0  0  0  0  0  0  0  0
    2.9801   -2.3768    0.8384 h   0  0  0  0  0  0  0  0  0  0  0  0
   -1.2482    3.6393    0.8149 h   0  0  0  0  0  0  0  0  0  0  0  0
   -1.5134    2.5268    2.1562 h   0  0  0  0  0  0  0  0  0  0  0  0
    0.1246    2.9779    1.7011 h   0  0  0  0  0  0  0  0  0  0  0  0
  1  2  1  0  0  0  0
  2  3  1  0  0  0  0
  3  4  1  0  0  0  0
  4  5  1  0  0  0  0
  5  6  1  0  0  0  0
  1  7  1  0  0  0  0
  6  7  1  0  0  0  0
  1  8  1  0  0  0  0
  8  9  1  0  0  0  0
  7 10  1  0  0  0  0
  9 10  1  0  0  0  0
  6 11  1  0  0  0  0
 10 12  1  0  0  0  0
 11 12  1  0  0  0  0
  7 13  1  0  0  0  0
 10 14  1  0  0  0  0
  6 15  1  0  0  0  0
  5 16  1  0  0  0  0
 12 17  1  0  0  0  0
 12 18  1  0  0  0  0
  1 19  1  0  0  0  0
  2 20  1  0  0  0  0
  2 21  1  0  0  0  0
  3 22  1  0  0  0  0
  3 23  1  0  0  0  0
  4 24  1  0  0  0  0
  4 25  1  0  0  0  0
  5 26  1  0  0  0  0
  8 27  1  0  0  0  0
  8 28  1  0  0  0  0
  9 29  1  0  0  0  0
  9 30  1  0  0  0  0
 16 31  1  0  0  0  0
 16 32  1  0  0  0  0
 16 33  1  0  0  0  0
 17 34  1  0  0  0  0
 17 35  1  0  0  0  0
 17 36  1  0  0  0  0
 18 37  1  0  0  0  0
 18 38  1  0  0  0  0
 18 39  1  0  0  0  0
 19 40  1  0  0  0  0
 19 41  1  0  0  0  0
 19 42  1  0  0  0  0
M  END
