 xtb: 6.7.1 (edcfbbe)
          08092618423D

 35 36  0     0  0            999 V2000
    0.0114   -0.7689   -0.0342 c   0  0  0  0  0  0  0  0  0  0  0  0
    0.5925    0.4604   -0.7887 c   0  0  0  0  0  0  0  0  0  0  0  0
   -0.4180    1.6266   -0.8213 c   0  0  0  0  0  0  0  0  0  0  0  0
   -1.2467    1.7808    0.4509 c   0  0  0  0  0  0  0  0  0  0  0  0
   -1.8242    0.4259    0.8783 c   0  0  0  0  0  0  0  0  0  0  0  0
   -0.6583   -0.4664    1.3206 c   0  0  0  0  0  0  0  0  0  0  0  0
   -1.2384   -1.2322   -0.8131 c   0  0  0  0  0  0  0  0  0  0  0  0
   -2.3493   -0.3467   -0.3048 c   0  0  0  0  0  0  0  0  0  0  0  0
    0.1891    0.0735    2.3066 o   0  0  0  0  0  0  0  0  0  0  0  0
    1.0633   -1.8745    0.1327 c   0  0  0  0  0  0  0  0  0  0  0  0
   -3.5704   -0.2670   -0.8014 c   0  0  0  0  0  0  0  0  0  0  0  0
    1.9904    0.9032   -0.4026 c   0  0  0  0  0  0  0  0  0  0  0  0
    3.0069    0.6399   -1.2156 c   0  0  0  0  0  0  0  0  0  0  0  0
    0.6898    0.1172   -1.8267 h   0  0  0  0  0  0  0  0  0  0  0  0
    1.5966   -2.3540   -1.0803 o   0  0  0  0  0  0  0  0  0  0  0  0
    2.2111    1.7038    0.8412 c   0  0  0  0  0  0  0  0  0  0  0  0
    0.1154    2.5550   -1.0336 h   0  0  0  0  0  0  0  0  0  0  0  0
   -1.1084    1.4555   -1.6499 h   0  0  0  0  0  0  0  0  0  0  0  0
   -0.6325    2.1657    1.2664 h   0  0  0  0  0  0  0  0  0  0  0  0
   -2.0560    2.4895    0.2659 h   0  0  0  0  0  0  0  0  0  0  0  0
   -2.5758    0.5632    1.6600 h   0  0  0  0  0  0  0  0  0  0  0  0
   -1.0606   -1.4221    1.6987 h   0  0  0  0  0  0  0  0  0  0  0  0
   -1.1131   -1.1653   -1.8928 h   0  0  0  0  0  0  0  0  0  0  0  0
   -1.4570   -2.2770   -0.5775 h   0  0  0  0  0  0  0  0  0  0  0  0
   -0.3432    0.2511    3.0922 h   0  0  0  0  0  0  0  0  0  0  0  0
    0.6020   -2.7441    0.6101 h   0  0  0  0  0  0  0  0  0  0  0  0
    1.8628   -1.5065    0.7883 h   0  0  0  0  0  0  0  0  0  0  0  0
   -3.8721   -0.8463   -1.6580 h   0  0  0  0  0  0  0  0  0  0  0  0
   -4.3163    0.3814   -0.3734 h   0  0  0  0  0  0  0  0  0  0  0  0
    4.0114    0.9557   -0.9860 h   0  0  0  0  0  0  0  0  0  0  0  0
    2.8907    0.1213   -2.1550 h   0  0  0  0  0  0  0  0  0  0  0  0
    2.1446   -1.6520   -1.4560 h   0  0  0  0  0  0  0  0  0  0  0  0
    1.6855    2.6552    0.7740 h   0  0  0  0  0  0  0  0  0  0  0  0
    1.8336    1.1720    1.7085 h   0  0  0  0  0  0  0  0  0  0  0  0
    3.2705    1.9065    0.9793 h   0  0  0  0  0  0  0  0  0  0  0  0
  1  2  1  0  0  0  0
  2  3  1  0  0  0  0
  3  4  1  0  0  0  0
  4  5  1  0  0  0  0
  1  6  1  0  0  0  0
  5  6  1  0  0  0  0
  1  7  1  0  0  0  0
  5  8  1  0  0  0  0
  7  8  1  0  0  0  0
  6  9  1  0  0  0  0
  1 10  1  0  0  0  0
  8 11  2  0  0  0  0
  2 12  1  0  0  0  0
 12 13  2  0  0  0  0
  2 14  1  0  0  0  0
 10 15  1  0  0  0  0
 12 16  1  0  0  0  0
  3 17  1  0  0  0  0
  3 18  1  0  0  0  0
  4 19  1  0  0  0  0
  4 20  1  0  0  0  0
  5 21  1  0  0  0  0
  6 22  1  0  0  0  0
  7 23  1  0  0  0  0
  7 24  1  0  0  0  0
  9 25  1  0  0  0  0
 10 26  1  0  0  0  0
 10 27  1  0  0  0  0
 11 28  1  0  0  0  0
 11 29  1  0  0  0  0
 13 30  1  0  0  0  0
 13 31  1  0  0  0  0
 15 32  1  0  0  0  0
 16 33  1  0  0  0  0
 16 34  1  0  0  0  0
 16 35  1  0  0  0  0
M  END
