 xtb: 6.7.1 (edcfbbe)
          08092615283D

 35 36  0     0  0            999 V2000
   -0.0282   -0.5613    0.2821 c   0  0  0  0  0  0  0  0  0  0  0  0
   -1.0007    0.5664    0.7179 c   0  0  0  0  0  0  0  0  0  0  0  0
   -0.3385    1.9564    0.6014 c   0  0  0  0  0  0  0  0  0  0  0  0
    0.5850    2.1479   -0.6029 c   0  0  0  0  0  0  0  0  0  0  0  0
    1.4724    0.9157   -0.7992 c   0  0  0  0  0  0  0  0  0  0  0  0
    0.5570   -0.2750   -1.1111 c   0  0  0  0  0  0  0  0  0  0  0  0
    1.2312   -0.5006    1.1698 c   0  0  0  0  0  0  0  0  0  0  0  0
    2.1170    0.5170    0.5026 c   0  0  0  0  0  0  0  0  0  0  0  0
    1.2878   -1.3537   -1.6704 o   0  0  0  0  0  0  0  0  0  0  0  0
   -0.7459   -1.9132    0.3809 c   0  0  0  0  0  0  0  0  0  0  0  0
    3.2616    0.9789    0.9722 c   0  0  0  0  0  0  0  0  0  0  0  0
   -2.3823    0.5039    0.0967 c   0  0  0  0  0  0  0  0  0  0  0  0
   -3.4080    0.0930    0.8314 c   0  0  0  0  0  0  0  0  0  0  0  0
   -1.1705    0.3977    1.7885 h   0  0  0  0  0  0  0  0  0  0  0  0
    0.1864   -2.9811    0.2641 o   0  0  0  0  0  0  0  0  0  0  0  0
   -2.6100    0.9493   -1.3169 c   0  0  0  0  0  0  0  0  0  0  0  0
   -1.1190    2.7199    0.5970 h   0  0  0  0  0  0  0  0  0  0  0  0
    0.2597    2.1141    1.5006 h   0  0  0  0  0  0  0  0  0  0  0  0
    0.0180    2.3180   -1.5193 h   0  0  0  0  0  0  0  0  0  0  0  0
    1.2089    3.0269   -0.4302 h   0  0  0  0  0  0  0  0  0  0  0  0
    2.2008    1.0822   -1.5948 h   0  0  0  0  0  0  0  0  0  0  0  0
   -0.2080   -0.0046   -1.8448 h   0  0  0  0  0  0  0  0  0  0  0  0
    1.7262   -1.4745    1.1758 h   0  0  0  0  0  0  0  0  0  0  0  0
    1.0011   -0.2408    2.2031 h   0  0  0  0  0  0  0  0  0  0  0  0
    1.2135   -2.1092   -1.0676 h   0  0  0  0  0  0  0  0  0  0  0  0
   -1.4976   -1.9825   -0.4146 h   0  0  0  0  0  0  0  0  0  0  0  0
   -1.2585   -1.9785    1.3490 h   0  0  0  0  0  0  0  0  0  0  0  0
    3.6589    0.6550    1.9199 h   0  0  0  0  0  0  0  0  0  0  0  0
    3.8491    1.6971    0.4256 h   0  0  0  0  0  0  0  0  0  0  0  0
   -4.4099    0.0529    0.4370 h   0  0  0  0  0  0  0  0  0  0  0  0
   -3.2959   -0.2236    1.8551 h   0  0  0  0  0  0  0  0  0  0  0  0
   -0.2984   -3.8141    0.2474 h   0  0  0  0  0  0  0  0  0  0  0  0
   -2.1140    1.8952   -1.5153 h   0  0  0  0  0  0  0  0  0  0  0  0
   -2.2318    0.2122   -2.0240 h   0  0  0  0  0  0  0  0  0  0  0  0
   -3.6750    1.0714   -1.5018 h   0  0  0  0  0  0  0  0  0  0  0  0
  1  2  1  0  0  0  0
  2  3  1  0  0  0  0
  3  4  1  0  0  0  0
  4  5  1  0  0  0  0
  1  6  1  0  0  0  0
  5  6  1  0  0  0  0
  1  7  1  0  0  0  0
  5  8  1  0  0  0  0
  7  8  1  0  0  0  0
  6  9  1  0  0  0  0
  1 10  1  0  0  0  0
  8 11  2  0  0  0  0
  2 12  1  0  0  0  0
 12 13  2  0  0  0  0
  2 14  1  0  0  0  0
 10 15  1  0  0  0  0
 12 16  1  0  0  0  0
  3 17  1  0  0  0  0
  3 18  1  0  0  0  0
  4 19  1  0  0  0  0
  4 20  1  0  0  0  0
  5 21  1  0  0  0  0
  6 22  1  0  0  0  0
  7 23  1  0  0  0  0
  7 24  1  0  0  0  0
  9 25  1  0  0  0  0
 10 26  1  0  0  0  0
 10 27  1  0  0  0  0
 11 28  1  0  0  0  0
 11 29  1  0  0  0  0
 13 30  1  0  0  0  0
 13 31  1  0  0  0  0
 15 32  1  0  0  0  0
 16 33  1  0  0  0  0
 16 34  1  0  0  0  0
 16 35  1  0  0  0  0
M  END
