 xtb: 6.7.1 (edcfbbe)
          08092615283D

 35 36  0     0  0            999 V2000
    0.0936   -0.6249    0.1057 c   0  0  0  0  0  0  0  0  0  0  0  0
   -0.9312    0.4009    0.6553 c   0  0  0  0  0  0  0  0  0  0  0  0
   -0.3145    1.8124    0.7327 c   0  0  0  0  0  0  0  0  0  0  0  0
    0.5817    2.2011   -0.4446 c   0  0  0  0  0  0  0  0  0  0  0  0
    1.4986    1.0377   -0.8290 c   0  0  0  0  0  0  0  0  0  0  0  0
    0.6289   -0.1451   -1.2592 c   0  0  0  0  0  0  0  0  0  0  0  0
    1.3689   -0.6014    0.9710 c   0  0  0  0  0  0  0  0  0  0  0  0
    2.1982    0.5176    0.3983 c   0  0  0  0  0  0  0  0  0  0  0  0
    1.4482   -1.0929   -1.9126 o   0  0  0  0  0  0  0  0  0  0  0  0
   -0.5102   -2.0332    0.0284 c   0  0  0  0  0  0  0  0  0  0  0  0
    3.3355    0.9708    0.8908 c   0  0  0  0  0  0  0  0  0  0  0  0
   -2.2707    0.3649   -0.0535 c   0  0  0  0  0  0  0  0  0  0  0  0
   -2.5473    0.9747   -1.1962 c   0  0  0  0  0  0  0  0  0  0  0  0
   -1.1395    0.0924    1.6870 h   0  0  0  0  0  0  0  0  0  0  0  0
   -0.9910   -2.5100    1.2632 o   0  0  0  0  0  0  0  0  0  0  0  0
   -3.3422   -0.3803    0.6888 c   0  0  0  0  0  0  0  0  0  0  0  0
   -1.1214    2.5408    0.8333 h   0  0  0  0  0  0  0  0  0  0  0  0
    0.2901    1.8681    1.6405 h   0  0  0  0  0  0  0  0  0  0  0  0
   -0.0109    2.4933   -1.3120 h   0  0  0  0  0  0  0  0  0  0  0  0
    1.1882    3.0619   -0.1561 h   0  0  0  0  0  0  0  0  0  0  0  0
    2.1962    1.3302   -1.6146 h   0  0  0  0  0  0  0  0  0  0  0  0
   -0.1852    0.1590   -1.9254 h   0  0  0  0  0  0  0  0  0  0  0  0
    1.9146   -1.5423    0.8545 h   0  0  0  0  0  0  0  0  0  0  0  0
    1.1620   -0.4545    2.0325 h   0  0  0  0  0  0  0  0  0  0  0  0
    0.8930   -1.7709   -2.3087 h   0  0  0  0  0  0  0  0  0  0  0  0
    0.2481   -2.7265   -0.3657 h   0  0  0  0  0  0  0  0  0  0  0  0
   -1.3697   -2.0374   -0.6476 h   0  0  0  0  0  0  0  0  0  0  0  0
    3.7714    0.5609    1.7866 h   0  0  0  0  0  0  0  0  0  0  0  0
    3.8802    1.7676    0.4144 h   0  0  0  0  0  0  0  0  0  0  0  0
   -3.5332    0.9177   -1.6281 h   0  0  0  0  0  0  0  0  0  0  0  0
   -1.8377    1.5641   -1.7469 h   0  0  0  0  0  0  0  0  0  0  0  0
   -0.2591   -2.5175    1.8900 h   0  0  0  0  0  0  0  0  0  0  0  0
   -2.9841   -1.3534    1.0161 h   0  0  0  0  0  0  0  0  0  0  0  0
   -3.6230    0.1829    1.5798 h   0  0  0  0  0  0  0  0  0  0  0  0
   -4.2288   -0.5117    0.0738 h   0  0  0  0  0  0  0  0  0  0  0  0
  1  2  1  0  0  0  0
  2  3  1  0  0  0  0
  3  4  1  0  0  0  0
  4  5  1  0  0  0  0
  1  6  1  0  0  0  0
  5  6  1  0  0  0  0
  1  7  1  0  0  0  0
  5  8  1  0  0  0  0
  7  8  1  0  0  0  0
  6  9  1  0  0  0  0
  1 10  1  0  0  0  0
  8 11  2  0  0  0  0
  2 12  1  0  0  0  0
 12 13  2  0  0  0  0
  2 14  1  0  0  0  0
 10 15  1  0  0  0  0
 12 16  1  0  0  0  0
  3 17  1  0  0  0  0
  3 18  1  0  0  0  0
  4 19  1  0  0  0  0
  4 20  1  0  0  0  0
  5 21  1  0  0  0  0
  6 22  1  0  0  0  0
  7 23  1  0  0  0  0
  7 24  1  0  0  0  0
  9 25  1  0  0  0  0
 10 26  1  0  0  0  0
 10 27  1  0  0  0  0
 11 28  1  0  0  0  0
 11 29  1  0  0  0  0
 13 30  1  0  0  0  0
 13 31  1  0  0  0  0
 15 32  1  0  0  0  0
 16 33  1  0  0  0  0
 16 34  1  0  0  0  0
 16 35  1  0  0  0  0
M  END
