 xtb: 6.7.1 (edcfbbe)
          08092617053D

 35 36  0     0  0            999 V2000
    0.0927   -0.6180    0.1122 c   0  0  0  0  0  0  0  0  0  0  0  0
   -0.9459    0.3998    0.6517 c   0  0  0  0  0  0  0  0  0  0  0  0
   -0.3373    1.8145    0.7388 c   0  0  0  0  0  0  0  0  0  0  0  0
    0.5662    2.2087   -0.4306 c   0  0  0  0  0  0  0  0  0  0  0  0
    1.4931    1.0527   -0.8184 c   0  0  0  0  0  0  0  0  0  0  0  0
    0.6359   -0.1411   -1.2499 c   0  0  0  0  0  0  0  0  0  0  0  0
    1.3563   -0.5756    0.9974 c   0  0  0  0  0  0  0  0  0  0  0  0
    2.2010    0.5253    0.4043 c   0  0  0  0  0  0  0  0  0  0  0  0
    1.3865   -1.1235   -1.9367 o   0  0  0  0  0  0  0  0  0  0  0  0
   -0.5001   -2.0288    0.0154 c   0  0  0  0  0  0  0  0  0  0  0  0
    3.3637    0.9461    0.8686 c   0  0  0  0  0  0  0  0  0  0  0  0
   -2.2787    0.3577   -0.0698 c   0  0  0  0  0  0  0  0  0  0  0  0
   -2.5430    0.9527   -1.2233 c   0  0  0  0  0  0  0  0  0  0  0  0
   -1.1629    0.0863    1.6798 h   0  0  0  0  0  0  0  0  0  0  0  0
   -0.9594   -2.5355    1.2522 o   0  0  0  0  0  0  0  0  0  0  0  0
   -3.3586   -0.3752    0.6741 c   0  0  0  0  0  0  0  0  0  0  0  0
   -1.1485    2.5389    0.8307 h   0  0  0  0  0  0  0  0  0  0  0  0
    0.2563    1.8741    1.6536 h   0  0  0  0  0  0  0  0  0  0  0  0
   -0.0219    2.4965   -1.3020 h   0  0  0  0  0  0  0  0  0  0  0  0
    1.1659    3.0733   -0.1378 h   0  0  0  0  0  0  0  0  0  0  0  0
    2.1844    1.3670   -1.6039 h   0  0  0  0  0  0  0  0  0  0  0  0
   -0.1640    0.1216   -1.9415 h   0  0  0  0  0  0  0  0  0  0  0  0
    1.8937   -1.5281    0.9473 h   0  0  0  0  0  0  0  0  0  0  0  0
    1.1263   -0.3824    2.0459 h   0  0  0  0  0  0  0  0  0  0  0  0
    2.1899   -1.2958   -1.4274 h   0  0  0  0  0  0  0  0  0  0  0  0
    0.2479   -2.7074   -0.4166 h   0  0  0  0  0  0  0  0  0  0  0  0
   -1.3665   -2.0211   -0.6490 h   0  0  0  0  0  0  0  0  0  0  0  0
    3.8064    0.5287    1.7580 h   0  0  0  0  0  0  0  0  0  0  0  0
    3.9173    1.7305    0.3809 h   0  0  0  0  0  0  0  0  0  0  0  0
   -3.5248    0.8920   -1.6647 h   0  0  0  0  0  0  0  0  0  0  0  0
   -1.8246    1.5278   -1.7777 h   0  0  0  0  0  0  0  0  0  0  0  0
   -0.2125   -2.5597    1.8641 h   0  0  0  0  0  0  0  0  0  0  0  0
   -4.2429   -0.5077    0.0560 h   0  0  0  0  0  0  0  0  0  0  0  0
   -3.0065   -1.3490    1.0074 h   0  0  0  0  0  0  0  0  0  0  0  0
   -3.6400    0.1943    1.5609 h   0  0  0  0  0  0  0  0  0  0  0  0
  1  2  1  0  0  0  0
  2  3  1  0  0  0  0
  3  4  1  0  0  0  0
  4  5  1  0  0  0  0
  1  6  1  0  0  0  0
  5  6  1  0  0  0  0
  1  7  1  0  0  0  0
  5  8  1  0  0  0  0
  7  8  1  0  0  0  0
  6  9  1  0  0  0  0
  1 10  1  0  0  0  0
  8 11  2  0  0  0  0
  2 12  1  0  0  0  0
 12 13  2  0  0  0  0
  2 14  1  0  0  0  0
 10 15  1  0  0  0  0
 12 16  1  0  0  0  0
  3 17  1  0  0  0  0
  3 18  1  0  0  0  0
  4 19  1  0  0  0  0
  4 20  1  0  0  0  0
  5 21  1  0  0  0  0
  6 22  1  0  0  0  0
  7 23  1  0  0  0  0
  7 24  1  0  0  0  0
  9 25  1  0  0  0  0
 10 26  1  0  0  0  0
 10 27  1  0  0  0  0
 11 28  1  0  0  0  0
 11 29  1  0  0  0  0
 13 30  1  0  0  0  0
 13 31  1  0  0  0  0
 15 32  1  0  0  0  0
 16 33  1  0  0  0  0
 16 34  1  0  0  0  0
 16 35  1  0  0  0  0
M  END
