 xtb: 6.7.1 (edcfbbe)
          08092616283D

 35 36  0     0  0            999 V2000
    0.1340   -0.5670    0.4252 c   0  0  0  0  0  0  0  0  0  0  0  0
   -0.9395    0.5098    0.7318 c   0  0  0  0  0  0  0  0  0  0  0  0
   -0.3466    1.9259    0.5579 c   0  0  0  0  0  0  0  0  0  0  0  0
    0.5817    2.1109   -0.6449 c   0  0  0  0  0  0  0  0  0  0  0  0
    1.5247    0.9138   -0.8021 c   0  0  0  0  0  0  0  0  0  0  0  0
    0.6757   -0.3444   -1.0019 c   0  0  0  0  0  0  0  0  0  0  0  0
    1.3777   -0.3096    1.3019 c   0  0  0  0  0  0  0  0  0  0  0  0
    2.2271    0.6460    0.5038 c   0  0  0  0  0  0  0  0  0  0  0  0
    1.4160   -1.4438   -1.5014 o   0  0  0  0  0  0  0  0  0  0  0  0
   -0.3885   -1.9977    0.6316 c   0  0  0  0  0  0  0  0  0  0  0  0
    3.3888    1.1524    0.8764 c   0  0  0  0  0  0  0  0  0  0  0  0
   -2.2537    0.3210   -0.0019 c   0  0  0  0  0  0  0  0  0  0  0  0
   -2.5026    0.7484   -1.2309 c   0  0  0  0  0  0  0  0  0  0  0  0
   -1.1753    0.3990    1.7971 h   0  0  0  0  0  0  0  0  0  0  0  0
   -1.2996   -2.4279   -0.3548 o   0  0  0  0  0  0  0  0  0  0  0  0
   -3.3384   -0.3427    0.7969 c   0  0  0  0  0  0  0  0  0  0  0  0
   -1.1678    2.6419    0.4935 h   0  0  0  0  0  0  0  0  0  0  0  0
    0.2236    2.1662    1.4574 h   0  0  0  0  0  0  0  0  0  0  0  0
    0.0131    2.2350   -1.5666 h   0  0  0  0  0  0  0  0  0  0  0  0
    1.1704    3.0191   -0.4984 h   0  0  0  0  0  0  0  0  0  0  0  0
    2.2170    1.0804   -1.6308 h   0  0  0  0  0  0  0  0  0  0  0  0
   -0.1263   -0.2003   -1.7272 h   0  0  0  0  0  0  0  0  0  0  0  0
    1.9232   -1.2405    1.4802 h   0  0  0  0  0  0  0  0  0  0  0  0
    1.1151    0.0957    2.2790 h   0  0  0  0  0  0  0  0  0  0  0  0
    2.2193   -1.5299   -0.9717 h   0  0  0  0  0  0  0  0  0  0  0  0
   -0.9160   -2.0704    1.5859 h   0  0  0  0  0  0  0  0  0  0  0  0
    0.4646   -2.6906    0.6613 h   0  0  0  0  0  0  0  0  0  0  0  0
    3.8263    0.9254    1.8343 h   0  0  0  0  0  0  0  0  0  0  0  0
    3.9453    1.8201    0.2406 h   0  0  0  0  0  0  0  0  0  0  0  0
   -3.4705    0.6005   -1.6815 h   0  0  0  0  0  0  0  0  0  0  0  0
   -1.7831    1.2562   -1.8463 h   0  0  0  0  0  0  0  0  0  0  0  0
   -0.8353   -2.4153   -1.2018 h   0  0  0  0  0  0  0  0  0  0  0  0
   -4.2850   -0.3093    0.2639 h   0  0  0  0  0  0  0  0  0  0  0  0
   -3.0880   -1.3859    0.9760 h   0  0  0  0  0  0  0  0  0  0  0  0
   -3.4606    0.1516    1.7602 h   0  0  0  0  0  0  0  0  0  0  0  0
  1  2  1  0  0  0  0
  2  3  1  0  0  0  0
  3  4  1  0  0  0  0
  4  5  1  0  0  0  0
  1  6  1  0  0  0  0
  5  6  1  0  0  0  0
  1  7  1  0  0  0  0
  5  8  1  0  0  0  0
  7  8  1  0  0  0  0
  6  9  1  0  0  0  0
  1 10  1  0  0  0  0
  8 11  2  0  0  0  0
  2 12  1  0  0  0  0
 12 13  2  0  0  0  0
  2 14  1  0  0  0  0
 10 15  1  0  0  0  0
 12 16  1  0  0  0  0
  3 17  1  0  0  0  0
  3 18  1  0  0  0  0
  4 19  1  0  0  0  0
  4 20  1  0  0  0  0
  5 21  1  0  0  0  0
  6 22  1  0  0  0  0
  7 23  1  0  0  0  0
  7 24  1  0  0  0  0
  9 25  1  0  0  0  0
 10 26  1  0  0  0  0
 10 27  1  0  0  0  0
 11 28  1  0  0  0  0
 11 29  1  0  0  0  0
 13 30  1  0  0  0  0
 13 31  1  0  0  0  0
 15 32  1  0  0  0  0
 16 33  1  0  0  0  0
 16 34  1  0  0  0  0
 16 35  1  0  0  0  0
M  END
