 xtb: 6.7.1 (edcfbbe)
          08092602483D

 42 44  0     0  0            999 V2000
   -0.7395    1.5811    0.2923 c   0  0  0  0  0  0  0  0  0  0  0  0
   -1.1806    1.2036   -1.1310 c   0  0  0  0  0  0  0  0  0  0  0  0
   -2.3785    0.2669   -1.2683 c   0  0  0  0  0  0  0  0  0  0  0  0
   -2.0440   -1.1945   -0.9998 c   0  0  0  0  0  0  0  0  0  0  0  0
   -1.5963   -1.4845    0.4320 c   0  0  0  0  0  0  0  0  0  0  0  0
   -0.1681   -1.0033    0.7177 c   0  0  0  0  0  0  0  0  0  0  0  0
    0.0780    0.4873    1.0128 c   0  0  0  0  0  0  0  0  0  0  0  0
    0.3076    2.7083    0.1901 c   0  0  0  0  0  0  0  0  0  0  0  0
    1.5990    1.9995   -0.2054 c   0  0  0  0  0  0  0  0  0  0  0  0
    1.5528    0.6813    0.5794 c   0  0  0  0  0  0  0  0  0  0  0  0
    0.6959   -1.3307   -0.3519 o   0  0  0  0  0  0  0  0  0  0  0  0
    1.9239   -0.6369   -0.1622 c   0  0  0  0  0  0  0  0  0  0  0  0
   -0.0313    0.6530    2.0879 h   0  0  0  0  0  0  0  0  0  0  0  0
    2.1942    0.7721    1.4586 h   0  0  0  0  0  0  0  0  0  0  0  0
    0.1720   -1.5479    1.6189 h   0  0  0  0  0  0  0  0  0  0  0  0
   -1.6676   -2.9913    0.6896 c   0  0  0  0  0  0  0  0  0  0  0  0
    2.5662   -0.4700   -1.5391 c   0  0  0  0  0  0  0  0  0  0  0  0
    2.8706   -1.4711    0.7176 c   0  0  0  0  0  0  0  0  0  0  0  0
   -1.9244    2.0510    1.1368 c   0  0  0  0  0  0  0  0  0  0  0  0
   -1.4247    2.1354   -1.6500 h   0  0  0  0  0  0  0  0  0  0  0  0
   -0.3405    0.7445   -1.6505 h   0  0  0  0  0  0  0  0  0  0  0  0
   -3.1941    0.5865   -0.6188 h   0  0  0  0  0  0  0  0  0  0  0  0
   -2.7412    0.3420   -2.2976 h   0  0  0  0  0  0  0  0  0  0  0  0
   -1.2504   -1.5187   -1.6741 h   0  0  0  0  0  0  0  0  0  0  0  0
   -2.9321   -1.7953   -1.2117 h   0  0  0  0  0  0  0  0  0  0  0  0
   -2.2648   -0.9797    1.1372 h   0  0  0  0  0  0  0  0  0  0  0  0
    0.4313    3.1771    1.1686 h   0  0  0  0  0  0  0  0  0  0  0  0
    0.0204    3.4815   -0.5219 h   0  0  0  0  0  0  0  0  0  0  0  0
    1.6106    1.8330   -1.2790 h   0  0  0  0  0  0  0  0  0  0  0  0
    2.4820    2.5854    0.0498 h   0  0  0  0  0  0  0  0  0  0  0  0
   -1.4049   -3.2224    1.7200 h   0  0  0  0  0  0  0  0  0  0  0  0
   -2.6717   -3.3646    0.5009 h   0  0  0  0  0  0  0  0  0  0  0  0
   -0.9732   -3.5068    0.0311 h   0  0  0  0  0  0  0  0  0  0  0  0
    1.8537   -0.0655   -2.2523 h   0  0  0  0  0  0  0  0  0  0  0  0
    3.4343    0.1803   -1.4796 h   0  0  0  0  0  0  0  0  0  0  0  0
    2.8778   -1.4457   -1.9033 h   0  0  0  0  0  0  0  0  0  0  0  0
    2.4668   -1.5897    1.7202 h   0  0  0  0  0  0  0  0  0  0  0  0
    2.9999   -2.4585    0.2807 h   0  0  0  0  0  0  0  0  0  0  0  0
    3.8398   -0.9838    0.7859 h   0  0  0  0  0  0  0  0  0  0  0  0
   -2.5915    1.2308    1.3853 h   0  0  0  0  0  0  0  0  0  0  0  0
   -1.5724    2.4874    2.0699 h   0  0  0  0  0  0  0  0  0  0  0  0
   -2.4906    2.8091    0.5994 h   0  0  0  0  0  0  0  0  0  0  0  0
  1  2  1  0  0  0  0
  2  3  1  0  0  0  0
  3  4  1  0  0  0  0
  4  5  1  0  0  0  0
  5  6  1  0  0  0  0
  1  7  1  0  0  0  0
  6  7  1  0  0  0  0
  1  8  1  0  0  0  0
  8  9  1  0  0  0  0
  7 10  1  0  0  0  0
  9 10  1  0  0  0  0
  6 11  1  0  0  0  0
 10 12  1  0  0  0  0
 11 12  1  0  0  0  0
  7 13  1  0  0  0  0
 10 14  1  0  0  0  0
  6 15  1  0  0  0  0
  5 16  1  0  0  0  0
 12 17  1  0  0  0  0
 12 18  1  0  0  0  0
  1 19  1  0  0  0  0
  2 20  1  0  0  0  0
  2 21  1  0  0  0  0
  3 22  1  0  0  0  0
  3 23  1  0  0  0  0
  4 24  1  0  0  0  0
  4 25  1  0  0  0  0
  5 26  1  0  0  0  0
  8 27  1  0  0  0  0
  8 28  1  0  0  0  0
  9 29  1  0  0  0  0
  9 30  1  0  0  0  0
 16 31  1  0  0  0  0
 16 32  1  0  0  0  0
 16 33  1  0  0  0  0
 17 34  1  0  0  0  0
 17 35  1  0  0  0  0
 17 36  1  0  0  0  0
 18 37  1  0  0  0  0
 18 38  1  0  0  0  0
 18 39  1  0  0  0  0
 19 40  1  0  0  0  0
 19 41  1  0  0  0  0
 19 42  1  0  0  0  0
M  END
