 xtb: 6.7.1 (edcfbbe)
          08092615283D

 35 36  0     0  0            999 V2000
    0.0846   -0.6474    0.0857 c   0  0  0  0  0  0  0  0  0  0  0  0
   -0.9548    0.3249    0.7081 c   0  0  0  0  0  0  0  0  0  0  0  0
   -0.3505    1.7319    0.8703 c   0  0  0  0  0  0  0  0  0  0  0  0
    0.4945    2.2027   -0.3139 c   0  0  0  0  0  0  0  0  0  0  0  0
    1.4461    1.0916   -0.7696 c   0  0  0  0  0  0  0  0  0  0  0  0
    0.6109   -0.0968   -1.2550 c   0  0  0  0  0  0  0  0  0  0  0  0
    1.3615   -0.6358    0.9513 c   0  0  0  0  0  0  0  0  0  0  0  0
    2.1775    0.5125    0.4159 c   0  0  0  0  0  0  0  0  0  0  0  0
    1.3769   -1.0327   -1.9887 o   0  0  0  0  0  0  0  0  0  0  0  0
   -0.4882   -2.0576   -0.0575 c   0  0  0  0  0  0  0  0  0  0  0  0
    3.3371    0.9322    0.8894 c   0  0  0  0  0  0  0  0  0  0  0  0
   -2.3165    0.3144    0.0389 c   0  0  0  0  0  0  0  0  0  0  0  0
   -3.2649   -0.4812    0.5161 c   0  0  0  0  0  0  0  0  0  0  0  0
   -1.1304   -0.0694    1.7158 h   0  0  0  0  0  0  0  0  0  0  0  0
   -0.7673   -2.5857    1.2279 o   0  0  0  0  0  0  0  0  0  0  0  0
   -2.6182    1.2317   -1.1094 c   0  0  0  0  0  0  0  0  0  0  0  0
   -1.1522    2.4463    1.0649 h   0  0  0  0  0  0  0  0  0  0  0  0
    0.2890    1.7256    1.7550 h   0  0  0  0  0  0  0  0  0  0  0  0
   -0.1319    2.4938   -1.1570 h   0  0  0  0  0  0  0  0  0  0  0  0
    1.0745    3.0767   -0.0096 h   0  0  0  0  0  0  0  0  0  0  0  0
    2.1217    1.4616   -1.5446 h   0  0  0  0  0  0  0  0  0  0  0  0
   -0.1863    0.1872   -1.9404 h   0  0  0  0  0  0  0  0  0  0  0  0
    1.9024   -1.5793    0.8393 h   0  0  0  0  0  0  0  0  0  0  0  0
    1.1351   -0.5295    2.0114 h   0  0  0  0  0  0  0  0  0  0  0  0
    2.1712   -1.2326   -1.4755 h   0  0  0  0  0  0  0  0  0  0  0  0
    0.2438   -2.6917   -0.5760 h   0  0  0  0  0  0  0  0  0  0  0  0
   -1.4017   -2.0211   -0.6644 h   0  0  0  0  0  0  0  0  0  0  0  0
    3.7978    0.4752    1.7494 h   0  0  0  0  0  0  0  0  0  0  0  0
    3.8686    1.7543    0.4401 h   0  0  0  0  0  0  0  0  0  0  0  0
   -4.2508   -0.5196    0.0816 h   0  0  0  0  0  0  0  0  0  0  0  0
   -3.0904   -1.1369    1.3528 h   0  0  0  0  0  0  0  0  0  0  0  0
   -1.1502   -3.4636    1.1186 h   0  0  0  0  0  0  0  0  0  0  0  0
   -2.4189    2.2670   -0.8419 h   0  0  0  0  0  0  0  0  0  0  0  0
   -2.0212    0.9880   -1.9856 h   0  0  0  0  0  0  0  0  0  0  0  0
   -3.6674    1.1467   -1.3838 h   0  0  0  0  0  0  0  0  0  0  0  0
  1  2  1  0  0  0  0
  2  3  1  0  0  0  0
  3  4  1  0  0  0  0
  4  5  1  0  0  0  0
  1  6  1  0  0  0  0
  5  6  1  0  0  0  0
  1  7  1  0  0  0  0
  5  8  1  0  0  0  0
  7  8  1  0  0  0  0
  6  9  1  0  0  0  0
  1 10  1  0  0  0  0
  8 11  2  0  0  0  0
  2 12  1  0  0  0  0
 12 13  2  0  0  0  0
  2 14  1  0  0  0  0
 10 15  1  0  0  0  0
 12 16  1  0  0  0  0
  3 17  1  0  0  0  0
  3 18  1  0  0  0  0
  4 19  1  0  0  0  0
  4 20  1  0  0  0  0
  5 21  1  0  0  0  0
  6 22  1  0  0  0  0
  7 23  1  0  0  0  0
  7 24  1  0  0  0  0
  9 25  1  0  0  0  0
 10 26  1  0  0  0  0
 10 27  1  0  0  0  0
 11 28  1  0  0  0  0
 11 29  1  0  0  0  0
 13 30  1  0  0  0  0
 13 31  1  0  0  0  0
 15 32  1  0  0  0  0
 16 33  1  0  0  0  0
 16 34  1  0  0  0  0
 16 35  1  0  0  0  0
M  END
