 xtb: 6.7.1 (edcfbbe)
          08092617053D

 35 36  0     0  0            999 V2000
    0.1356   -0.5917    0.4252 c   0  0  0  0  0  0  0  0  0  0  0  0
   -0.9109    0.5005    0.7794 c   0  0  0  0  0  0  0  0  0  0  0  0
   -0.3302    1.9119    0.5586 c   0  0  0  0  0  0  0  0  0  0  0  0
    0.5346    2.0672   -0.6934 c   0  0  0  0  0  0  0  0  0  0  0  0
    1.5082    0.8901   -0.8156 c   0  0  0  0  0  0  0  0  0  0  0  0
    0.6837   -0.3826   -1.0013 c   0  0  0  0  0  0  0  0  0  0  0  0
    1.4019   -0.3616    1.2740 c   0  0  0  0  0  0  0  0  0  0  0  0
    2.2026    0.6530    0.5000 c   0  0  0  0  0  0  0  0  0  0  0  0
    1.5251   -1.4388   -1.4275 o   0  0  0  0  0  0  0  0  0  0  0  0
   -0.4297   -2.0073    0.6274 c   0  0  0  0  0  0  0  0  0  0  0  0
    3.3190    1.2329    0.9008 c   0  0  0  0  0  0  0  0  0  0  0  0
   -2.2791    0.2986    0.1556 c   0  0  0  0  0  0  0  0  0  0  0  0
   -3.2355   -0.2992    0.8596 c   0  0  0  0  0  0  0  0  0  0  0  0
   -1.0745    0.3974    1.8597 h   0  0  0  0  0  0  0  0  0  0  0  0
   -1.2295   -2.4530   -0.4503 o   0  0  0  0  0  0  0  0  0  0  0  0
   -2.5815    0.8189   -1.2187 c   0  0  0  0  0  0  0  0  0  0  0  0
   -1.1461    2.6372    0.5429 h   0  0  0  0  0  0  0  0  0  0  0  0
    0.2935    2.1532    1.4212 h   0  0  0  0  0  0  0  0  0  0  0  0
   -0.0753    2.1158   -1.5961 h   0  0  0  0  0  0  0  0  0  0  0  0
    1.0971    2.9997   -0.6188 h   0  0  0  0  0  0  0  0  0  0  0  0
    2.2082    1.0414   -1.6386 h   0  0  0  0  0  0  0  0  0  0  0  0
   -0.1097   -0.2481   -1.7429 h   0  0  0  0  0  0  0  0  0  0  0  0
    1.9764   -1.2881    1.3440 h   0  0  0  0  0  0  0  0  0  0  0  0
    1.1760   -0.0320    2.2879 h   0  0  0  0  0  0  0  0  0  0  0  0
    0.9774   -2.2314   -1.4990 h   0  0  0  0  0  0  0  0  0  0  0  0
   -0.9933   -2.0527    1.5674 h   0  0  0  0  0  0  0  0  0  0  0  0
    0.3903   -2.7279    0.6912 h   0  0  0  0  0  0  0  0  0  0  0  0
    3.7535    1.0232    1.8640 h   0  0  0  0  0  0  0  0  0  0  0  0
    3.8458    1.9373    0.2796 h   0  0  0  0  0  0  0  0  0  0  0  0
   -4.2245   -0.4542    0.4598 h   0  0  0  0  0  0  0  0  0  0  0  0
   -3.0777   -0.6567    1.8639 h   0  0  0  0  0  0  0  0  0  0  0  0
   -2.0285   -1.9045   -0.4712 h   0  0  0  0  0  0  0  0  0  0  0  0
   -2.3555    1.8805   -1.2855 h   0  0  0  0  0  0  0  0  0  0  0  0
   -2.0013    0.3046   -1.9822 h   0  0  0  0  0  0  0  0  0  0  0  0
   -3.6362    0.6791   -1.4462 h   0  0  0  0  0  0  0  0  0  0  0  0
  1  2  1  0  0  0  0
  2  3  1  0  0  0  0
  3  4  1  0  0  0  0
  4  5  1  0  0  0  0
  1  6  1  0  0  0  0
  5  6  1  0  0  0  0
  1  7  1  0  0  0  0
  5  8  1  0  0  0  0
  7  8  1  0  0  0  0
  6  9  1  0  0  0  0
  1 10  1  0  0  0  0
  8 11  2  0  0  0  0
  2 12  1  0  0  0  0
 12 13  2  0  0  0  0
  2 14  1  0  0  0  0
 10 15  1  0  0  0  0
 12 16  1  0  0  0  0
  3 17  1  0  0  0  0
  3 18  1  0  0  0  0
  4 19  1  0  0  0  0
  4 20  1  0  0  0  0
  5 21  1  0  0  0  0
  6 22  1  0  0  0  0
  7 23  1  0  0  0  0
  7 24  1  0  0  0  0
  9 25  1  0  0  0  0
 10 26  1  0  0  0  0
 10 27  1  0  0  0  0
 11 28  1  0  0  0  0
 11 29  1  0  0  0  0
 13 30  1  0  0  0  0
 13 31  1  0  0  0  0
 15 32  1  0  0  0  0
 16 33  1  0  0  0  0
 16 34  1  0  0  0  0
 16 35  1  0  0  0  0
M  END
