 xtb: 6.7.1 (edcfbbe)
          08092618203D

 35 36  0     0  0            999 V2000
    0.0122   -0.7558   -0.0452 c   0  0  0  0  0  0  0  0  0  0  0  0
    0.6247    0.4788   -0.7681 c   0  0  0  0  0  0  0  0  0  0  0  0
   -0.4268    1.6003   -0.8982 c   0  0  0  0  0  0  0  0  0  0  0  0
   -1.3076    1.8105    0.3347 c   0  0  0  0  0  0  0  0  0  0  0  0
   -1.8085    0.4676    0.8737 c   0  0  0  0  0  0  0  0  0  0  0  0
   -0.6083   -0.3867    1.3182 c   0  0  0  0  0  0  0  0  0  0  0  0
   -1.2471   -1.2048   -0.8114 c   0  0  0  0  0  0  0  0  0  0  0  0
   -2.3644   -0.3597   -0.2549 c   0  0  0  0  0  0  0  0  0  0  0  0
    0.2512    0.1701    2.2748 o   0  0  0  0  0  0  0  0  0  0  0  0
    1.0086   -1.9039    0.1228 c   0  0  0  0  0  0  0  0  0  0  0  0
   -3.6137   -0.3459   -0.6828 c   0  0  0  0  0  0  0  0  0  0  0  0
    1.9547    0.9693   -0.2277 c   0  0  0  0  0  0  0  0  0  0  0  0
    2.1100    1.9930    0.6040 c   0  0  0  0  0  0  0  0  0  0  0  0
    0.8460    0.1272   -1.7834 h   0  0  0  0  0  0  0  0  0  0  0  0
    1.4518   -2.3613   -1.1444 o   0  0  0  0  0  0  0  0  0  0  0  0
    3.1734    0.3109   -0.8159 c   0  0  0  0  0  0  0  0  0  0  0  0
    0.0818    2.5322   -1.1524 h   0  0  0  0  0  0  0  0  0  0  0  0
   -1.0845    1.3536   -1.7335 h   0  0  0  0  0  0  0  0  0  0  0  0
   -0.7771    2.3318    1.1328 h   0  0  0  0  0  0  0  0  0  0  0  0
   -2.1633    2.4288    0.0548 h   0  0  0  0  0  0  0  0  0  0  0  0
   -2.5257    0.6285    1.6808 h   0  0  0  0  0  0  0  0  0  0  0  0
   -0.9880   -1.3010    1.7941 h   0  0  0  0  0  0  0  0  0  0  0  0
   -1.1371   -1.0985   -1.8899 h   0  0  0  0  0  0  0  0  0  0  0  0
   -1.4479   -2.2598   -0.6096 h   0  0  0  0  0  0  0  0  0  0  0  0
    0.7777    0.8594    1.8408 h   0  0  0  0  0  0  0  0  0  0  0  0
    0.5056   -2.7199    0.6592 h   0  0  0  0  0  0  0  0  0  0  0  0
    1.8568   -1.5700    0.7349 h   0  0  0  0  0  0  0  0  0  0  0  0
   -3.9367   -0.9569   -1.5093 h   0  0  0  0  0  0  0  0  0  0  0  0
   -4.3632    0.2765   -0.2240 h   0  0  0  0  0  0  0  0  0  0  0  0
    3.0956    2.3091    0.9059 h   0  0  0  0  0  0  0  0  0  0  0  0
    1.3028    2.5894    0.9917 h   0  0  0  0  0  0  0  0  0  0  0  0
    1.9732   -3.1620   -1.0153 h   0  0  0  0  0  0  0  0  0  0  0  0
    2.9570   -0.6902   -1.1730 h   0  0  0  0  0  0  0  0  0  0  0  0
    3.5093    0.8967   -1.6732 h   0  0  0  0  0  0  0  0  0  0  0  0
    3.9883    0.2754   -0.0963 h   0  0  0  0  0  0  0  0  0  0  0  0
  1  2  1  0  0  0  0
  2  3  1  0  0  0  0
  3  4  1  0  0  0  0
  4  5  1  0  0  0  0
  1  6  1  0  0  0  0
  5  6  1  0  0  0  0
  1  7  1  0  0  0  0
  5  8  1  0  0  0  0
  7  8  1  0  0  0  0
  6  9  1  0  0  0  0
  1 10  1  0  0  0  0
  8 11  2  0  0  0  0
  2 12  1  0  0  0  0
 12 13  2  0  0  0  0
  2 14  1  0  0  0  0
 10 15  1  0  0  0  0
 12 16  1  0  0  0  0
  3 17  1  0  0  0  0
  3 18  1  0  0  0  0
  4 19  1  0  0  0  0
  4 20  1  0  0  0  0
  5 21  1  0  0  0  0
  6 22  1  0  0  0  0
  7 23  1  0  0  0  0
  7 24  1  0  0  0  0
  9 25  1  0  0  0  0
 10 26  1  0  0  0  0
 10 27  1  0  0  0  0
 11 28  1  0  0  0  0
 11 29  1  0  0  0  0
 13 30  1  0  0  0  0
 13 31  1  0  0  0  0
 15 32  1  0  0  0  0
 16 33  1  0  0  0  0
 16 34  1  0  0  0  0
 16 35  1  0  0  0  0
M  END
