 xtb: 6.7.1 (edcfbbe)
          08092617053D

 35 36  0     0  0            999 V2000
    0.0951   -0.6240    0.1065 c   0  0  0  0  0  0  0  0  0  0  0  0
   -0.9363    0.3981    0.6533 c   0  0  0  0  0  0  0  0  0  0  0  0
   -0.3226    1.8109    0.7370 c   0  0  0  0  0  0  0  0  0  0  0  0
    0.5759    2.2043   -0.4371 c   0  0  0  0  0  0  0  0  0  0  0  0
    1.4975    1.0443   -0.8236 c   0  0  0  0  0  0  0  0  0  0  0  0
    0.6308   -0.1398   -1.2561 c   0  0  0  0  0  0  0  0  0  0  0  0
    1.3675   -0.5950    0.9770 c   0  0  0  0  0  0  0  0  0  0  0  0
    2.2010    0.5192    0.4001 c   0  0  0  0  0  0  0  0  0  0  0  0
    1.4567   -1.0893   -1.9125 o   0  0  0  0  0  0  0  0  0  0  0  0
   -0.5011   -2.0353    0.0253 c   0  0  0  0  0  0  0  0  0  0  0  0
    3.3476    0.9610    0.8829 c   0  0  0  0  0  0  0  0  0  0  0  0
   -2.2753    0.3616   -0.0581 c   0  0  0  0  0  0  0  0  0  0  0  0
   -2.5491    0.9643   -1.2057 c   0  0  0  0  0  0  0  0  0  0  0  0
   -1.1469    0.0858    1.6830 h   0  0  0  0  0  0  0  0  0  0  0  0
   -0.9809   -2.5173    1.2639 o   0  0  0  0  0  0  0  0  0  0  0  0
   -3.3520   -0.3726    0.6892 c   0  0  0  0  0  0  0  0  0  0  0  0
   -1.1308    2.5378    0.8365 h   0  0  0  0  0  0  0  0  0  0  0  0
    0.2787    1.8648    1.6467 h   0  0  0  0  0  0  0  0  0  0  0  0
   -0.0146    2.4959   -1.3060 h   0  0  0  0  0  0  0  0  0  0  0  0
    1.1803    3.0655   -0.1459 h   0  0  0  0  0  0  0  0  0  0  0  0
    2.1931    1.3414   -1.6100 h   0  0  0  0  0  0  0  0  0  0  0  0
   -0.1791    0.1600   -1.9272 h   0  0  0  0  0  0  0  0  0  0  0  0
    1.9130   -1.5370    0.8712 h   0  0  0  0  0  0  0  0  0  0  0  0
    1.1553   -0.4383    2.0352 h   0  0  0  0  0  0  0  0  0  0  0  0
    0.8979   -1.7644   -2.3136 h   0  0  0  0  0  0  0  0  0  0  0  0
    0.2599   -2.7262   -0.3646 h   0  0  0  0  0  0  0  0  0  0  0  0
   -1.3613   -2.0446   -0.6492 h   0  0  0  0  0  0  0  0  0  0  0  0
    3.7871    0.5459    1.7748 h   0  0  0  0  0  0  0  0  0  0  0  0
    3.8956    1.7540    0.4031 h   0  0  0  0  0  0  0  0  0  0  0  0
   -3.5353    0.9086   -1.6383 h   0  0  0  0  0  0  0  0  0  0  0  0
   -1.8360    1.5459   -1.7604 h   0  0  0  0  0  0  0  0  0  0  0  0
   -0.2460   -2.5150    1.8907 h   0  0  0  0  0  0  0  0  0  0  0  0
   -3.0009   -1.3482    1.0180 h   0  0  0  0  0  0  0  0  0  0  0  0
   -3.6256    0.1947    1.5798 h   0  0  0  0  0  0  0  0  0  0  0  0
   -4.2412   -0.4997    0.0768 h   0  0  0  0  0  0  0  0  0  0  0  0
  1  2  1  0  0  0  0
  2  3  1  0  0  0  0
  3  4  1  0  0  0  0
  4  5  1  0  0  0  0
  1  6  1  0  0  0  0
  5  6  1  0  0  0  0
  1  7  1  0  0  0  0
  5  8  1  0  0  0  0
  7  8  1  0  0  0  0
  6  9  1  0  0  0  0
  1 10  1  0  0  0  0
  8 11  2  0  0  0  0
  2 12  1  0  0  0  0
 12 13  2  0  0  0  0
  2 14  1  0  0  0  0
 10 15  1  0  0  0  0
 12 16  1  0  0  0  0
  3 17  1  0  0  0  0
  3 18  1  0  0  0  0
  4 19  1  0  0  0  0
  4 20  1  0  0  0  0
  5 21  1  0  0  0  0
  6 22  1  0  0  0  0
  7 23  1  0  0  0  0
  7 24  1  0  0  0  0
  9 25  1  0  0  0  0
 10 26  1  0  0  0  0
 10 27  1  0  0  0  0
 11 28  1  0  0  0  0
 11 29  1  0  0  0  0
 13 30  1  0  0  0  0
 13 31  1  0  0  0  0
 15 32  1  0  0  0  0
 16 33  1  0  0  0  0
 16 34  1  0  0  0  0
 16 35  1  0  0  0  0
M  END
